*Heading
** Job name: 000_Duretz_et_al_2014_R_EQ_2000km Model name: 000_Duretz_et_al_2014_R_EQ_2000km
** Generated by: Abaqus/CAE 2019
*Preprint, echo=NO, model=NO, history=NO, contact=NO
**
** PARTS
**
*Part, name=Planar
*End Part
**  
**
** ASSEMBLY
**
*Assembly, name=Assembly
**  
*Instance, name=Planar-1, part=Planar
*Node
      1,  -137809.562,      896600.
      2,  -141804.672,      896600.
      3,     -104800.,      896600.
      4,     -104800.,      936600.
      5,     -174800.,      936600.
      6,     -174800.,      896600.
      7,  -138746.344,   898415.312
      8,  -140815.141,   898447.188
      9,  -139807.109,      896600.
     10,  -135867.812,      896600.
     11,  -133926.078,      896600.
     12,  -131984.344,      896600.
     13,  -130042.602,      896600.
     14,  -128100.867,      896600.
     15,  -126159.125,      896600.
     16,  -124217.391,      896600.
     17,  -122275.648,      896600.
     18,  -120333.906,      896600.
     19,  -118392.172,      896600.
     20,   -116450.43,      896600.
** ... 840 like lines cut
*Element, type=CPE3T
1, 9, 1, 7
2, 9, 7, 8
3, 9, 8, 2
   4, 532,  98,  99
   5, 113, 107, 108
   6, 148,  67, 147
   7, 284, 116, 196
   8, 115,  10,  11
   9, 116,   1,  10
  10, 212, 178, 177
  11, 117, 115,  11
  12, 118, 117,  12
  13, 119, 118,  13
  14, 120, 119,  14
  15, 121, 120,  15
  16, 204, 201, 122
  17, 123,  17,  18
  18, 122, 121,  16
  19, 124, 123,  18
  20, 125, 124,  19
** ... 1588 like lines cut
*Nset, nset=Inclusion
 1, 2, 7, 8, 9
*Elset, elset=Inclusion, generate
 1,  3,  1
*Nset, nset=Matrix
   1,   2,   3,   4,   5,   6,   7,   8,  10,  11,  12,  13,  14,  15,  16,  17
  18,  19,  20,  21,  22,  23,  24,  25,  26,  27,  28,  29,  30,  31,  32,  33
  34,  35,  36,  37,  38,  39,  40,  41,  42,  43,  44,  45,  46,  47,  48,  49
  50,  51,  52,  53,  54,  55,  56,  57,  58,  59,  60,  61,  62,  63,  64,  65
  66,  67,  68,  69,  70,  71,  72,  73,  74,  75,  76,  77,  78,  79,  80,  81
  82,  83,  84,  85,  86,  87,  88,  89,  90,  91,  92,  93,  94,  95,  96,  97
  98,  99, 100, 101, 102, 103, 104, 105, 106, 107, 108, 109, 110, 111, 112, 113
 114, 115, 116, 117, 118, 119, 120, 121, 122, 123, 124, 125, 126, 127, 128, 129
 130, 131, 132, 133, 134, 135, 136, 137, 138, 139, 140, 141, 142, 143, 144, 145
 146, 147, 148, 149, 150, 151, 152, 153, 154, 155, 156, 157, 158, 159, 160, 161
 162, 163, 164, 165, 166, 167, 168, 169, 170, 171, 172, 173, 174, 175, 176, 177
 178, 179, 180, 181, 182, 183, 184, 185, 186, 187, 188, 189, 190, 191, 192, 193
 194, 195, 196, 197, 198, 199, 200, 201, 202, 203, 204, 205, 206, 207, 208, 209
 210, 211, 212, 213, 214, 215, 216, 217, 218, 219, 220, 221, 222, 223, 224, 225
 226, 227, 228, 229, 230, 231, 232, 233, 234, 235, 236, 237, 238, 239, 240, 241
 242, 243, 244, 245, 246, 247, 248, 249, 250, 251, 252, 253, 254, 255, 256, 257
 258, 259, 260, 261, 262, 263, 264, 265, 266, 267, 268, 269, 270, 271, 272, 273
 274, 275, 276, 277, 278, 279, 280, 281, 282, 283, 284, 285, 286, 287, 288, 289
 290, 291, 292, 293, 294, 295, 296, 297, 298, 299, 300, 301, 302, 303, 304, 305
 306, 307, 308, 309, 310, 311, 312, 313, 314, 315, 316, 317, 318, 319, 320, 321
** ... 34 like lines cut
*Elset, elset=Matrix, generate
    4,  1608,     1
*Nset, nset=EntireGeometry, generate
   1,  860,    1
*Elset, elset=EntireGeometry, generate
    1,  1608,     1
** Section: Inclusion
*Solid Section, elset=Inclusion, material=Inclusion
,
** Section: Matrix
*Solid Section, elset=Matrix, material=Matrix
,
*End Instance
**  
*Elset, elset=AllElements, instance=Planar-1, generate
    1,  1608,     1
*Nset, nset=AllNodes, instance=Planar-1, generate
   1,  860,    1
*Nset, nset=BottomBoundary, instance=Planar-1
   1,   2,   3,   6,   9,  10,  11,  12,  13,  14,  15,  16,  17,  18,  19,  20
  21,  22,  23,  24,  25,  98,  99, 100, 101, 102, 103, 104, 105, 106, 107, 108
 109, 110, 111, 112
*Elset, elset=BottomBoundary, instance=Planar-1
   1,   3,   4,   5,   8,   9,  17,  26,  80,  82, 107, 108, 117, 121, 123, 125
 127, 129, 133, 135, 137, 139, 141, 143, 145, 233, 263, 267, 269, 273, 277, 446
 447, 450, 617
*Nset, nset=EntireGeometry, instance=Planar-1, generate
   1,  860,    1
*Elset, elset=EntireGeometry, instance=Planar-1, generate
    1,  1608,     1
*Nset, nset=Inclusion, instance=Planar-1
 1, 2, 7, 8, 9
*Elset, elset=Inclusion, instance=Planar-1, generate
 1,  3,  1
*Elset, elset=InclusionElement, instance=Planar-1
 3,
*Nset, nset=LeftBoundary, instance=Planar-1
  5,  6, 79, 80, 81, 82, 83, 84, 85, 86, 87, 88, 89, 90, 91, 92
 93, 94, 95, 96, 97
*Elset, elset=LeftBoundary, instance=Planar-1
  46,  47,  80,  83,  84,  85,  87,  89,  90, 228, 236, 240, 246, 248, 250, 252
 254, 256, 258, 260
*Elset, elset=MatrixElement, instance=Planar-1
 1061,
*Nset, nset=RightBoundary, instance=Planar-1
  3,  4, 26, 27, 28, 29, 30, 31, 32, 33, 34, 35, 36, 37, 38, 39
 40, 41, 42, 43, 44
*Elset, elset=RightBoundary, instance=Planar-1
  26,  27,  35,  36, 147, 149, 152, 154, 156, 158, 160, 162, 164, 166, 308, 324
 397, 399, 401, 407
*Elset, elset=ShearBandElement, instance=Planar-1
 1150,
*Nset, nset=Top_Surface, instance=Planar-1
  4,  5, 45, 46, 47, 48, 49, 50, 51, 52, 53, 54, 55, 56, 57, 58
 59, 60, 61, 62, 63, 64, 65, 66, 67, 68, 69, 70, 71, 72, 73, 74
 75, 76, 77, 78
*Elset, elset=Top_Surface, instance=Planar-1
  27,  28,  46,  50, 168, 170, 172, 174, 176, 178, 180, 182, 184, 186, 188, 190
 192, 194, 196, 198, 200, 202, 204, 206, 208, 210, 212, 214, 216, 218, 220, 222
 224, 310, 429
*Elset, elset=_BottomSurface_S1, internal, instance=Planar-1
  1, 26
*Elset, elset=_BottomSurface_S3, internal, instance=Planar-1
  3, 80
*Elset, elset=_BottomSurface_S2, internal, instance=Planar-1
   4,   5,   8,   9,  17,  82, 107, 108, 117, 121, 123, 125, 127, 129, 133, 135
 137, 139, 141, 143, 145, 233, 263, 267, 269, 273, 277, 446, 447, 450, 617
*Surface, type=ELEMENT, name=BottomSurface
_BottomSurface_S1, S1
_BottomSurface_S3, S3
_BottomSurface_S2, S2
*Elset, elset=_LeftRightTopBottom_S1, internal, instance=Planar-1
  1, 26, 46
*Elset, elset=_LeftRightTopBottom_S3, internal, instance=Planar-1
  3, 27, 80
*Elset, elset=_LeftRightTopBottom_S2, internal, instance=Planar-1
   4,   5,   8,   9,  17,  26,  27,  28,  35,  36,  46,  47,  50,  80,  82,  83
  84,  85,  87,  89,  90, 107, 108, 117, 121, 123, 125, 127, 129, 133, 135, 137
 139, 141, 143, 145, 147, 149, 152, 154, 156, 158, 160, 162, 164, 166, 168, 170
 172, 174, 176, 178, 180, 182, 184, 186, 188, 190, 192, 194, 196, 198, 200, 202
 204, 206, 208, 210, 212, 214, 216, 218, 220, 222, 224, 228, 233, 236, 240, 246
 248, 250, 252, 254, 256, 258, 260, 263, 267, 269, 273, 277, 308, 310, 324, 397
 399, 401, 407, 429, 446, 447, 450, 617
*Surface, type=ELEMENT, name=LeftRightTopBottom
_LeftRightTopBottom_S1, S1
_LeftRightTopBottom_S3, S3
_LeftRightTopBottom_S2, S2
*Elset, elset=_LeftSurface_S2, internal, instance=Planar-1
  46,  47,  80,  83,  84,  85,  87,  89,  90, 228, 236, 240, 246, 248, 250, 252
 254, 256, 258, 260
*Surface, type=ELEMENT, name=LeftSurface
_LeftSurface_S2, S2
*Elset, elset=_RightSurface_S2, internal, instance=Planar-1
  26,  27,  35,  36, 147, 149, 152, 154, 156, 158, 160, 162, 164, 166, 308, 324
 397, 399, 401, 407
*Surface, type=ELEMENT, name=RightSurface
_RightSurface_S2, S2
*Elset, elset=_TopSurface_S3, internal, instance=Planar-1
 27,
*Elset, elset=_TopSurface_S2, internal, instance=Planar-1
  28,  50, 168, 170, 172, 174, 176, 178, 180, 182, 184, 186, 188, 190, 192, 194
 196, 198, 200, 202, 204, 206, 208, 210, 212, 214, 216, 218, 220, 222, 224, 310
 429,
*Elset, elset=_TopSurface_S1, internal, instance=Planar-1
 46,
*Surface, type=ELEMENT, name=TopSurface
_TopSurface_S3, S3
_TopSurface_S2, S2
_TopSurface_S1, S1
*End Assembly
*Amplitude, name=CompressionAmp, time=TOTAL TIME
             0.,              1., 630720000000000.,              1.
*Amplitude, name=GravityAmp, time=TOTAL TIME
             0.,              1., 100000000000000.,              1.
** 
** MATERIALS
** 
*Material, name=Inclusion
*Density
2700.,
*Depvar
     28,
*User Material, constants=18, type=MECHANICAL
 2.5e+10,     0.25,  100000.,       0.,      3.3,      30.,      30.,    2700.
    1050.,  186000.,     8.31, 3.16e-26,    2e+13,      10.,     273.,  3.5e-05
    0.005,    0.035
*User Material, constants=3, type=THERMAL
 2.5,1050.,2700.
*Material, name=Matrix
*Density
2700.,
*Depvar
     28,
*User Material, constants=18, type=MECHANICAL
 2.5e+10,    0.25,   5e+07,      0.,      3.,     30.,     30.,   2700.
   1050., 276000.,    8.31, 3.2e-20,   2e+13,     10.,    273., 3.5e-05
   0.005,   0.035
*User Material, constants=3, type=THERMAL
 2.5,1050.,2700.
** 
** BOUNDARY CONDITIONS
** 
** Name: FixedBottomBoundary Type: Velocity/Angular velocity
*Boundary, type=VELOCITY
BottomBoundary, 2, 2
** 
** PREDEFINED FIELDS
** 
** Name: TemperatureGradient   Type: Temperature
*Initial Conditions, type=TEMPERATURE
Planar-1.EntireGeometry, 673.
** ----------------------------------------------------------------
** 
** STEP: Compress
** 
*Step, name=Compress, nlgeom=YES, inc=1000000
*Coupled Temperature-displacement, creep=none, deltmx=1e+13, stabilize=0.0002, allsdtol=0.05, continue=NO
1e-14, 5e+12, 1e-14, 5e+12
** 
** BOUNDARY CONDITIONS
** 
** Name: CompressLeftBoundary Type: Velocity/Angular velocity
*Boundary, amplitude=CompressionAmp, type=VELOCITY
LeftBoundary, 1, 1, 3.5e-09
** Name: CompressRightBoundary Type: Velocity/Angular velocity
*Boundary, amplitude=CompressionAmp, type=VELOCITY
RightBoundary, 1, 1, -3.5e-09
** Name: ExtendTopBoundary Type: Velocity/Angular velocity
*Boundary, amplitude=CompressionAmp, type=VELOCITY
Top_Surface, 2, 2, 1.22e-08
** 
** LOADS
** 
** Name: AdiabaticSides   Type: Surface heat flux
*Dsflux, amplitude=CompressionAmp
LeftRightTopBottom, S, 1e-36
** 
** CONTROLS
** 
*Controls, reset
*Controls, parameters=time incrementation
, , , , , , , 52, , , 
** 
** OUTPUT REQUESTS
** 
*Restart, write, frequency=0
** 
** FIELD OUTPUT: Compress
** 
*Output, field
*Node Output
NT, U, V
*Element Output, directions=YES
BF, E, EE, ER, ESDV, GRAV, IE, LE, MISES, MISESONLY, NE, P, S, SDV, TEMP
*Contact Output
CSTRESSERI, 
*Radiation Output
FTEMP, 
** 
** HISTORY OUTPUT: InclusionElement
** 
*Output, history
*Element Output, elset=InclusionElement
E11, E12, E13, E22, E23, E33, EP, INV3, PRESS, S11, S12, S13, S22, S23, S33, SDV
SP, TEMP, TRESC
** 
** HISTORY OUTPUT: MatrixElement
** 
*Element Output, elset=MatrixElement
E11, E12, E13, E22, E23, E33, EP, INV3, PRESS, S11, S12, S13, S22, S23, S33, SDV
SP, TEMP, TRESC
** 
** HISTORY OUTPUT: ShearBandElement
** 
*Element Output, elset=ShearBandElement
E11, E12, E13, E22, E23, E33, EP, INV3, PRESS, S11, S12, S13, S22, S23, S33, SDV
SP, TEMP, TRESC
*End Step
