*Heading
** Job name: 000_Duretz_et_al_2014 Model name: 000_Duretz_et_al_2014
** Generated by: Abaqus/CAE 2019
*Preprint, echo=NO, model=NO, history=NO, contact=NO
**
** PARTS
**
*Part, name=Planar
*End Part
**  
**
** ASSEMBLY
**
*Assembly, name=Assembly
**  
*Instance, name=Planar-1, part=Planar
*Node
      1,     -133800.,      896600.
      2,     -145800.,      896600.
      3,     -104800.,      896600.
      4,     -104800.,      936600.
      5,     -174800.,      936600.
      6,     -174800.,      896600.
      7,  -134161.844,   898652.125
      8,  -135203.734,    900456.75
      9,     -136800.,   901796.125
     10,  -138758.109,   902508.875
     11,  -140841.891,   902508.875
     12,     -142800.,   901796.125
     13,  -144396.266,    900456.75
     14,  -145438.156,   898652.125
     15,     -143800.,      896600.
     16,     -141800.,      896600.
     17,     -139800.,      896600.
     18,     -137800.,      896600.
     19,     -135800.,      896600.
     20,  -131866.672,      896600.
** ... 841 like lines cut
*Element, type=CPE3T
 1,   2,  15,  14
 2, 123, 120,  18
 3,  11, 125, 124
 4, 125, 122, 124
 5, 122, 121,  16
 6, 121,  15,  16
 7, 121,  14,  15
 8, 122,  17, 120
 9, 124, 126,  10
10, 126, 123,   8
11, 123,  19,   7
12, 123,   7,   8
13,  19,   1,   7
14, 126, 124, 120
15, 120,  17,  18
16, 125,  13, 121
17, 121,  13,  14
18, 122,  16,  17
19, 124, 122, 120
20, 123,  18,  19
** ... 1589 like lines cut
*Nset, nset=EntireGeometry, generate
   1,  861,    1
*Elset, elset=EntireGeometry, generate
    1,  1609,     1
*Nset, nset=Inclusion
   1,   2,   7,   8,   9,  10,  11,  12,  13,  14,  15,  16,  17,  18,  19, 120
 121, 122, 123, 124, 125, 126
*Elset, elset=Inclusion, generate
  1,  27,   1
*Nset, nset=Matrix
   1,   2,   3,   4,   5,   6,   7,   8,   9,  10,  11,  12,  13,  14,  20,  21
  22,  23,  24,  25,  26,  27,  28,  29,  30,  31,  32,  33,  34,  35,  36,  37
  38,  39,  40,  41,  42,  43,  44,  45,  46,  47,  48,  49,  50,  51,  52,  53
  54,  55,  56,  57,  58,  59,  60,  61,  62,  63,  64,  65,  66,  67,  68,  69
  70,  71,  72,  73,  74,  75,  76,  77,  78,  79,  80,  81,  82,  83,  84,  85
  86,  87,  88,  89,  90,  91,  92,  93,  94,  95,  96,  97,  98,  99, 100, 101
 102, 103, 104, 105, 106, 107, 108, 109, 110, 111, 112, 113, 114, 115, 116, 117
 118, 119, 127, 128, 129, 130, 131, 132, 133, 134, 135, 136, 137, 138, 139, 140
 141, 142, 143, 144, 145, 146, 147, 148, 149, 150, 151, 152, 153, 154, 155, 156
 157, 158, 159, 160, 161, 162, 163, 164, 165, 166, 167, 168, 169, 170, 171, 172
 173, 174, 175, 176, 177, 178, 179, 180, 181, 182, 183, 184, 185, 186, 187, 188
 189, 190, 191, 192, 193, 194, 195, 196, 197, 198, 199, 200, 201, 202, 203, 204
 205, 206, 207, 208, 209, 210, 211, 212, 213, 214, 215, 216, 217, 218, 219, 220
 221, 222, 223, 224, 225, 226, 227, 228, 229, 230, 231, 232, 233, 234, 235, 236
 237, 238, 239, 240, 241, 242, 243, 244, 245, 246, 247, 248, 249, 250, 251, 252
 253, 254, 255, 256, 257, 258, 259, 260, 261, 262, 263, 264, 265, 266, 267, 268
 269, 270, 271, 272, 273, 274, 275, 276, 277, 278, 279, 280, 281, 282, 283, 284
 285, 286, 287, 288, 289, 290, 291, 292, 293, 294, 295, 296, 297, 298, 299, 300
 301, 302, 303, 304, 305, 306, 307, 308, 309, 310, 311, 312, 313, 314, 315, 316
 317, 318, 319, 320, 321, 322, 323, 324, 325, 326, 327, 328, 329, 330, 331, 332
** ... 34 like lines cut
*Elset, elset=Matrix, generate
   28,  1609,     1
** Section: Inclusion
*Solid Section, elset=Inclusion, material=Inclusion
,
** Section: Matrix
*Solid Section, elset=Matrix, material=Matrix
,
*End Instance
**  
*Elset, elset=AllElements, instance=Planar-1, generate
    1,  1609,     1
*Nset, nset=AllNodes, instance=Planar-1, generate
   1,  861,    1
*Nset, nset=BottomBoundary, instance=Planar-1
   1,   2,   3,   6,  15,  16,  17,  18,  19,  20,  21,  22,  23,  24,  25,  26
  27,  28,  29,  30,  31,  32,  33, 106, 107, 108, 109, 110, 111, 112, 113, 114
 115, 116, 117, 118, 119
*Elset, elset=BottomBoundary, instance=Planar-1
   1,   6,  13,  15,  18,  20,  35,  36,  43,  44,  53, 107, 129, 131, 132, 134
 136, 142, 144, 147, 149, 150, 152, 155, 162, 164, 168, 171, 178, 303, 304, 305
 306, 318, 320, 332
*Nset, nset=EntireGeometry, instance=Planar-1, generate
   1,  861,    1
*Elset, elset=EntireGeometry, instance=Planar-1, generate
    1,  1609,     1
*Nset, nset=Inclusion, instance=Planar-1
   1,   2,   7,   8,   9,  10,  11,  12,  13,  14,  15,  16,  17,  18,  19, 120
 121, 122, 123, 124, 125, 126
*Elset, elset=Inclusion, instance=Planar-1, generate
  1,  27,   1
*Elset, elset=InclusionElement, instance=Planar-1
 22,
*Nset, nset=LeftBoundary, instance=Planar-1
   5,   6,  87,  88,  89,  90,  91,  92,  93,  94,  95,  96,  97,  98,  99, 100
 101, 102, 103, 104, 105
*Elset, elset=LeftBoundary, instance=Planar-1
  73,  74, 107, 112, 116, 117, 256, 259, 261, 267, 269, 271, 273, 275, 277, 279
 281, 284, 351, 398
*Elset, elset=MatrixElement, instance=Planar-1
 1111,
*Nset, nset=RightBoundary, instance=Planar-1
  3,  4, 34, 35, 36, 37, 38, 39, 40, 41, 42, 43, 44, 45, 46, 47
 48, 49, 50, 51, 52
*Elset, elset=RightBoundary, instance=Planar-1
  53,  54,  61,  72, 181, 183, 185, 187, 189, 191, 193, 195, 197, 199, 201, 353
 368, 375, 438, 444
*Elset, elset=ShearBandElement, instance=Planar-1
 1404,
*Nset, nset=Top_Surface, instance=Planar-1
  4,  5, 53, 54, 55, 56, 57, 58, 59, 60, 61, 62, 63, 64, 65, 66
 67, 68, 69, 70, 71, 72, 73, 74, 75, 76, 77, 78, 79, 80, 81, 82
 83, 84, 85, 86
*Elset, elset=Top_Surface, instance=Planar-1
  54,  55,  73,  80,  98, 203, 205, 207, 209, 211, 213, 215, 217, 219, 221, 223
 225, 227, 229, 231, 233, 235, 239, 241, 243, 245, 247, 249, 251, 253, 355, 386
 393, 460, 466
*Elset, elset=_BottomSurface_S1, internal, instance=Planar-1
  1, 13, 53
*Elset, elset=_BottomSurface_S2, internal, instance=Planar-1
   6,  15,  18,  20,  35,  36,  43,  44, 129, 131, 132, 134, 136, 142, 144, 147
 149, 150, 152, 155, 162, 164, 168, 171, 178, 303, 304, 305, 306, 318, 320, 332
*Elset, elset=_BottomSurface_S3, internal, instance=Planar-1
 107,
*Surface, type=ELEMENT, name=BottomSurface
_BottomSurface_S1, S1
_BottomSurface_S2, S2
_BottomSurface_S3, S3
*Elset, elset=_LeftSurface_S2, internal, instance=Planar-1
  73,  74, 107, 112, 116, 117, 256, 259, 261, 267, 269, 271, 273, 275, 277, 279
 281, 284, 351, 398
*Surface, type=ELEMENT, name=LeftSurface
_LeftSurface_S2, S2
*Elset, elset=_LeftandRight_S2, internal, instance=Planar-1
  53,  54,  61,  72,  73,  74, 107, 112, 116, 117, 181, 183, 185, 187, 189, 191
 193, 195, 197, 199, 201, 256, 259, 261, 267, 269, 271, 273, 275, 277, 279, 281
 284, 351, 353, 368, 375, 398, 438, 444
*Surface, type=ELEMENT, name=LeftandRight
_LeftandRight_S2, S2
*Elset, elset=_RightSurface_S2, internal, instance=Planar-1
  53,  54,  61,  72, 181, 183, 185, 187, 189, 191, 193, 195, 197, 199, 201, 353
 368, 375, 438, 444
*Surface, type=ELEMENT, name=RightSurface
_RightSurface_S2, S2
*Elset, elset=_TopSurface_S3, internal, instance=Planar-1
 54,
*Elset, elset=_TopSurface_S2, internal, instance=Planar-1
  55,  80,  98, 203, 205, 207, 209, 211, 213, 215, 217, 219, 221, 223, 225, 227
 229, 231, 233, 235, 239, 241, 243, 245, 247, 249, 251, 253, 355, 386, 393, 460
 466,
*Elset, elset=_TopSurface_S1, internal, instance=Planar-1
 73,
*Surface, type=ELEMENT, name=TopSurface
_TopSurface_S3, S3
_TopSurface_S2, S2
_TopSurface_S1, S1
*End Assembly
*Amplitude, name=CompressionAmp, time=TOTAL TIME
             0.,              1., 630720000000000.,              1.
*Amplitude, name=GravityAmp, time=TOTAL TIME
             0.,              1., 100000000000000.,              1.
** 
** MATERIALS
** 
*Material, name=Inclusion
*Density
2700.,
*Depvar
     28,
*User Material, constants=18, type=MECHANICAL
 2.5e+10,     0.25,  100000.,       0.,      3.3,      30.,      30.,    2700.
    1050.,     186.,     8.31, 3.16e-26,    2e+13,      10.,     273.,  3.5e-05
    0.005,    0.035
*User Material, constants=3, type=THERMAL
 3.2,1050.,2700.
*Material, name=Matrix
*Density
2700.,
*Depvar
     28,
*User Material, constants=18, type=MECHANICAL
 2.5e+10,    0.25,   5e+07,      0.,      3.,     30.,     30.,   2700.
   1050., 276000.,    8.31, 3.2e-20,   2e+13,     10.,    273., 3.5e-05
   0.005,   0.035
*User Material, constants=3, type=THERMAL
 3.2,1050.,2700.
** 
** BOUNDARY CONDITIONS
** 
** Name: FixedBottomBoundary Type: Velocity/Angular velocity
*Boundary, type=VELOCITY
BottomBoundary, 2, 2
** 
** PREDEFINED FIELDS
** 
** Name: TemperatureGradient   Type: Temperature
*Initial Conditions, type=TEMPERATURE
Planar-1.EntireGeometry, 673.
** ----------------------------------------------------------------
** 
** STEP: Compress
** 
*Step, name=Compress, nlgeom=YES, inc=1000000
*Coupled Temperature-displacement, creep=none, deltmx=1e+13, stabilize=0.0002, allsdtol=0.05, continue=NO
1e-14, 9.4608e+13, 1e-14, 9.4608e+13
** 
** BOUNDARY CONDITIONS
** 
** Name: CompressLeftBoundary Type: Velocity/Angular velocity
*Boundary, amplitude=CompressionAmp, type=VELOCITY
LeftBoundary, 1, 1, 3.5e-11
** Name: CompressRightBoundary Type: Velocity/Angular velocity
*Boundary, amplitude=CompressionAmp, type=VELOCITY
RightBoundary, 1, 1, -3.5e-11
** Name: ExtendTopBoundary Type: Velocity/Angular velocity
*Boundary, amplitude=CompressionAmp, type=VELOCITY
Top_Surface, 2, 2, 2e-11
** 
** LOADS
** 
** Name: AdiabaticSides   Type: Surface heat flux
*Dsflux, amplitude=CompressionAmp
LeftandRight, S, 1e-36
** 
** CONTROLS
** 
*Controls, reset
*Controls, parameters=time incrementation
, , , , , , , 52, , , 
** 
** OUTPUT REQUESTS
** 
*Restart, write, frequency=0
** 
** FIELD OUTPUT: Compress
** 
*Output, field
*Node Output
NT, U, V
*Element Output, directions=YES
BF, E, EE, ER, ESDV, GRAV, IE, LE, MISES, MISESONLY, NE, P, S, SDV, TEMP
*Contact Output
CSTRESSERI, 
*Radiation Output
FTEMP, 
** 
** HISTORY OUTPUT: InclusionElement
** 
*Output, history
*Element Output, elset=InclusionElement
E11, E12, E13, E22, E23, E33, EP, INV3, PRESS, S11, S12, S13, S22, S23, S33, SDV
SP, TEMP, TRESC
** 
** HISTORY OUTPUT: MatrixElement
** 
*Element Output, elset=MatrixElement
E11, E12, E13, E22, E23, E33, EP, INV3, PRESS, S11, S12, S13, S22, S23, S33, SDV
SP, TEMP, TRESC
** 
** HISTORY OUTPUT: ShearBandElement
** 
*Element Output, elset=ShearBandElement
E11, E12, E13, E22, E23, E33, EP, INV3, PRESS, S11, S12, S13, S22, S23, S33, SDV
SP, TEMP, TRESC
*End Step
