*Heading
** Job name: 000_Duretz_et_al_2014_R_EQ_3km_200by100cells_CRES Model name: 000_Duretz_et_al_2014_R_EQ_3km_200by100cells_FRES
** Generated by: Abaqus/CAE 2019
*Preprint, echo=NO, model=NO, history=NO, contact=NO
**
** PARTS
**
*Part, name=Planar
*End Part
**  
**
** ASSEMBLY
**
*Assembly, name=Assembly
**  
*Instance, name=Planar-1, part=Planar
*Node
      1,  -136804.938,      896600.
      2,   -142805.25,      896600.
      3,     -104800.,      896600.
      4,     -104800.,      936600.
      5,     -174800.,      936600.
      6,     -174800.,      896600.
      7,  -136855.594,   897116.875
      8,  -136994.625,   897617.188
      9,  -137217.844,   898086.125
     10,  -137518.594,     898509.5
     11,  -137887.828,   898874.688
     12,    -138314.5,   899170.688
     13,  -138785.844,    899388.75
     14,  -139287.719,   899522.188
     15,  -139805.094,   899567.188
     16,  -140322.469,   899522.188
     17,  -140824.328,    899388.75
     18,  -141295.672,   899170.688
     19,  -141722.359,   898874.688
     20,  -142091.594,     898509.5
** ... 21584 like lines cut
*Element, type=CPE3T
  1, 620,  25,  26
  2, 644, 629, 622
  3, 649, 643, 648
  4, 628, 625,  29
  5, 635, 626, 627
  6,  23,   2,  24
  7, 639,  25, 620
  8, 626,  26,  27
  9, 640, 626, 635
 10, 662, 640, 657
 11, 627,  28, 625
 12, 645, 627, 625
 13, 656, 645, 653
 14, 643, 628, 621
 15, 628,  30, 621
 16, 624,  31,  32
 17, 641, 624, 634
 18, 663, 620, 640
 19, 629,  33, 622
 20, 681, 680, 648
** ... 42584 like lines cut
*Nset, nset=Inclusion
   1,   2,   7,   8,   9,  10,  11,  12,  13,  14,  15,  16,  17,  18,  19,  20
  21,  22,  23,  24,  25,  26,  27,  28,  29,  30,  31,  32,  33,  34,  35,  36
  37,  38,  39, 620, 621, 622, 623, 624, 625, 626, 627, 628, 629, 630, 631, 632
 633, 634, 635, 636, 637, 638, 639, 640, 641, 642, 643, 644, 645, 646, 647, 648
 649, 650, 651, 652, 653, 654, 655, 656, 657, 658, 659, 660, 661, 662, 663, 664
 665, 666, 667, 668, 669, 670, 671, 672, 673, 674, 675, 676, 677, 678, 679, 680
 681, 682, 683, 684, 685, 686, 687, 688, 689, 690, 691, 692, 693
*Elset, elset=Inclusion, generate
   1,  181,    1
*Nset, nset=EntireGeometry, generate
     1,  21604,      1
*Elset, elset=EntireGeometry, generate
     1,  42604,      1
*Nset, nset=Matrix
     1,     2,     3,     4,     5,     6,     7,     8,     9,    10,    11,    12,    13,    14,    15,    16
    17,    18,    19,    20,    21,    22,    23,    40,    41,    42,    43,    44,    45,    46,    47,    48
    49,    50,    51,    52,    53,    54,    55,    56,    57,    58,    59,    60,    61,    62,    63,    64
    65,    66,    67,    68,    69,    70,    71,    72,    73,    74,    75,    76,    77,    78,    79,    80
    81,    82,    83,    84,    85,    86,    87,    88,    89,    90,    91,    92,    93,    94,    95,    96
    97,    98,    99,   100,   101,   102,   103,   104,   105,   106,   107,   108,   109,   110,   111,   112
   113,   114,   115,   116,   117,   118,   119,   120,   121,   122,   123,   124,   125,   126,   127,   128
   129,   130,   131,   132,   133,   134,   135,   136,   137,   138,   139,   140,   141,   142,   143,   144
   145,   146,   147,   148,   149,   150,   151,   152,   153,   154,   155,   156,   157,   158,   159,   160
   161,   162,   163,   164,   165,   166,   167,   168,   169,   170,   171,   172,   173,   174,   175,   176
   177,   178,   179,   180,   181,   182,   183,   184,   185,   186,   187,   188,   189,   190,   191,   192
   193,   194,   195,   196,   197,   198,   199,   200,   201,   202,   203,   204,   205,   206,   207,   208
   209,   210,   211,   212,   213,   214,   215,   216,   217,   218,   219,   220,   221,   222,   223,   224
   225,   226,   227,   228,   229,   230,   231,   232,   233,   234,   235,   236,   237,   238,   239,   240
   241,   242,   243,   244,   245,   246,   247,   248,   249,   250,   251,   252,   253,   254,   255,   256
   257,   258,   259,   260,   261,   262,   263,   264,   265,   266,   267,   268,   269,   270,   271,   272
   273,   274,   275,   276,   277,   278,   279,   280,   281,   282,   283,   284,   285,   286,   287,   288
   289,   290,   291,   292,   293,   294,   295,   296,   297,   298,   299,   300,   301,   302,   303,   304
   305,   306,   307,   308,   309,   310,   311,   312,   313,   314,   315,   316,   317,   318,   319,   320
   321,   322,   323,   324,   325,   326,   327,   328,   329,   330,   331,   332,   333,   334,   335,   336
** ... 1325 like lines cut
*Elset, elset=Matrix, generate
   182,  42604,      1
** Section: Inclusion
*Solid Section, elset=Inclusion, material=Inclusion
,
** Section: Matrix
*Solid Section, elset=Matrix, material=Matrix
,
*End Instance
**  
*Elset, elset=AllElements, instance=Planar-1, generate
     1,  42604,      1
*Nset, nset=AllNodes, instance=Planar-1, generate
     1,  21604,      1
*Nset, nset=BottomBoundary, instance=Planar-1
   1,   2,   3,   6,  24,  25,  26,  27,  28,  29,  30,  31,  32,  33,  34,  35
  36,  37,  38,  39,  40,  41,  42,  43,  44,  45,  46,  47,  48,  49,  50,  51
  52,  53,  54,  55,  56,  57,  58,  59,  60,  61,  62,  63,  64,  65,  66,  67
  68,  69,  70,  71,  72,  73,  74,  75,  76,  77,  78,  79,  80,  81,  82,  83
  84,  85,  86,  87,  88,  89,  90,  91,  92,  93,  94,  95,  96,  97,  98,  99
 100, 101, 102, 103, 104, 105, 106, 107, 108, 109, 110, 111, 112, 113, 114, 115
 116, 117, 118, 119, 120, 121, 122, 123, 124, 125, 126, 127, 128, 129, 130, 529
 530, 531, 532, 533, 534, 535, 536, 537, 538, 539, 540, 541, 542, 543, 544, 545
 546, 547, 548, 549, 550, 551, 552, 553, 554, 555, 556, 557, 558, 559, 560, 561
 562, 563, 564, 565, 566, 567, 568, 569, 570, 571, 572, 573, 574, 575, 576, 577
 578, 579, 580, 581, 582, 583, 584, 585, 586, 587, 588, 589, 590, 591, 592, 593
 594, 595, 596, 597, 598, 599, 600, 601, 602, 603, 604, 605, 606, 607, 608, 609
 610, 611, 612, 613, 614, 615, 616, 617, 618, 619
*Elset, elset=BottomBoundary, instance=Planar-1
     1,     6,     8,    16,    22,    30,    33,    37,    39,    45,    48,    50,    52,    54,    56,    60
    73,   545,   548,   634,   635,   639,   640,   657,  1902,  2572,  2718,  2849,  2879,  2936,  2963,  2989
  3014,  3038,  3061,  3083,  3143,  3161,  3209,  3222,  3268,  3277,  3298,  3303,  4671,  4676,  4680,  9503
  9510,  9511,  9515,  9516,  9518,  9520,  9521,  9522,  9525,  9526,  9527,  9529,  9531,  9536,  9538,  9540
  9555,  9715,  9765,  9766,  9767,  9770,  9771,  9773,  9775,  9776,  9777,  9780,  9781,  9785,  9786,  9813
  9820,  9822,  9824,  9826,  9828,  9830,  9832,  9834,  9840,  9841,  9843,  9848,  9850,  9852,  9856,  9860
  9862,  9864,  9866,  9868,  9870,  9872,  9874,  9876,  9878,  9879,  9882,  9884,  9886,  9888,  9890,  9892
  9894,  9898,  9906,  9907,  9913,  9915,  9921,  9929,  9937,  9945,  9953,  9965,  9967,  9973,  9975,  9978
  9980,  9981,  9983,  9986,  9987,  9989,  9992,  9993,  9995,  9997, 10003, 10006, 10008, 10010, 10011, 10012
 10013, 10014, 10015, 10016, 10017, 10018, 10019, 10021, 10022, 10024, 10028, 10032, 10033, 10035, 10039, 10045
 10049, 10061, 10066, 10068, 10072, 10075, 10077, 10084, 10085, 10086, 10087, 10090, 10092, 10093, 10094, 10095
 10096, 10097, 10100, 10101, 10102, 10103, 10104, 10105, 10107, 10109, 10111, 10113, 10116, 10123, 10126, 10128
 10132, 10133, 10137, 10164, 10165, 10168, 10170, 10172, 10174
*Nset, nset=EntireGeometry, instance=Planar-1, generate
     1,  21604,      1
*Elset, elset=EntireGeometry, instance=Planar-1, generate
     1,  42604,      1
*Nset, nset=Inclusion, instance=Planar-1
   1,   2,   7,   8,   9,  10,  11,  12,  13,  14,  15,  16,  17,  18,  19,  20
  21,  22,  23,  24,  25,  26,  27,  28,  29,  30,  31,  32,  33,  34,  35,  36
  37,  38,  39, 620, 621, 622, 623, 624, 625, 626, 627, 628, 629, 630, 631, 632
 633, 634, 635, 636, 637, 638, 639, 640, 641, 642, 643, 644, 645, 646, 647, 648
 649, 650, 651, 652, 653, 654, 655, 656, 657, 658, 659, 660, 661, 662, 663, 664
 665, 666, 667, 668, 669, 670, 671, 672, 673, 674, 675, 676, 677, 678, 679, 680
 681, 682, 683, 684, 685, 686, 687, 688, 689, 690, 691, 692, 693
*Elset, elset=Inclusion, instance=Planar-1, generate
   1,  181,    1
*Elset, elset=InclusionElement, instance=Planar-1
 181,
*Nset, nset=LeftBoundary, instance=Planar-1
   5,   6, 430, 431, 432, 433, 434, 435, 436, 437, 438, 439, 440, 441, 442, 443
 444, 445, 446, 447, 448, 449, 450, 451, 452, 453, 454, 455, 456, 457, 458, 459
 460, 461, 462, 463, 464, 465, 466, 467, 468, 469, 470, 471, 472, 473, 474, 475
 476, 477, 478, 479, 480, 481, 482, 483, 484, 485, 486, 487, 488, 489, 490, 491
 492, 493, 494, 495, 496, 497, 498, 499, 500, 501, 502, 503, 504, 505, 506, 507
 508, 509, 510, 511, 512, 513, 514, 515, 516, 517, 518, 519, 520, 521, 522, 523
 524, 525, 526, 527, 528
*Elset, elset=LeftBoundary, instance=Planar-1
  1904,  2068,  2111,  2154,  2197,  2536,  2575,  2613,  2650,  2965,  2991,  3016,  3040,  3225,  3238,  3250
  3261,  9604,  9715,  9721,  9722,  9723,  9724,  9725,  9733,  9734,  9735,  9736,  9737,  9745,  9746,  9747
  9748,  9749,  9757,  9758,  9759,  9760,  9761, 10576, 10578, 10682, 10691, 10694, 10696, 10698, 10700, 10702
 10704, 10713, 10716, 10718, 10720, 10722, 10724, 10726, 10728, 10730, 10739, 10742, 10744, 10746, 10748, 10750
 10752, 10754, 10756, 10765, 10768, 10770, 10772, 10774, 10776, 10778, 10874, 10876, 10878, 10880, 10882, 10894
 10896, 10898, 10900, 10902, 10904, 10906, 10918, 10920, 10922, 10924, 10926, 10928, 10930, 10942, 10944, 10946
 10947, 10950, 10952, 10954
*Elset, elset=MatrixElement, instance=Planar-1
 37478,
*Elset, elset=NearWeakZone, instance=Planar-1
 17054,
*Nset, nset=RightBoundary, instance=Planar-1
   3,   4, 131, 132, 133, 134, 135, 136, 137, 138, 139, 140, 141, 142, 143, 144
 145, 146, 147, 148, 149, 150, 151, 152, 153, 154, 155, 156, 157, 158, 159, 160
 161, 162, 163, 164, 165, 166, 167, 168, 169, 170, 171, 172, 173, 174, 175, 176
 177, 178, 179, 180, 181, 182, 183, 184, 185, 186, 187, 188, 189, 190, 191, 192
 193, 194, 195, 196, 197, 198, 199, 200, 201, 202, 203, 204, 205, 206, 207, 208
 209, 210, 211, 212, 213, 214, 215, 216, 217, 218, 219, 220, 221, 222, 223, 224
 225, 226, 227, 228, 229
*Elset, elset=RightBoundary, instance=Planar-1
   316,   318,   415,   459,   502,  1074,  1113,  1151,  1188,  1503,  1529,  1554,  1578,  1763,  1776,  1788
  1799,  9555,  9556,  9562,  9563,  9564,  9565,  9566,  9574,  9575,  9576,  9577,  9578,  9586,  9587,  9588
  9589,  9590,  9598,  9599,  9600,  9601,  9602, 10588, 10589, 10592, 10594, 10596, 10598, 10600, 10602, 10604
 10606, 10615, 10618, 10620, 10622, 10624, 10626, 10628, 10630, 10632, 10641, 10644, 10646, 10648, 10650, 10652
 10654, 10656, 10658, 10667, 10670, 10672, 10674, 10676, 10678, 10680, 10780, 10782, 10784, 10786, 10788, 10800
 10802, 10804, 10806, 10808, 10810, 10812, 10824, 10826, 10828, 10830, 10832, 10834, 10836, 10848, 10850, 10852
 10854, 10856, 10858, 10860
*Elset, elset=ShearBandElement, instance=Planar-1
 27910,
*Nset, nset=Top_Surface, instance=Planar-1
   4,   5, 230, 231, 232, 233, 234, 235, 236, 237, 238, 239, 240, 241, 242, 243
 244, 245, 246, 247, 248, 249, 250, 251, 252, 253, 254, 255, 256, 257, 258, 259
 260, 261, 262, 263, 264, 265, 266, 267, 268, 269, 270, 271, 272, 273, 274, 275
 276, 277, 278, 279, 280, 281, 282, 283, 284, 285, 286, 287, 288, 289, 290, 291
 292, 293, 294, 295, 296, 297, 298, 299, 300, 301, 302, 303, 304, 305, 306, 307
 308, 309, 310, 311, 312, 313, 314, 315, 316, 317, 318, 319, 320, 321, 322, 323
 324, 325, 326, 327, 328, 329, 330, 331, 332, 333, 334, 335, 336, 337, 338, 339
 340, 341, 342, 343, 344, 345, 346, 347, 348, 349, 350, 351, 352, 353, 354, 355
 356, 357, 358, 359, 360, 361, 362, 363, 364, 365, 366, 367, 368, 369, 370, 371
 372, 373, 374, 375, 376, 377, 378, 379, 380, 381, 382, 383, 384, 385, 386, 387
 388, 389, 390, 391, 392, 393, 394, 395, 396, 397, 398, 399, 400, 401, 402, 403
 404, 405, 406, 407, 408, 409, 410, 411, 412, 413, 414, 415, 416, 417, 418, 419
 420, 421, 422, 423, 424, 425, 426, 427, 428, 429
*Elset, elset=Top_Surface, instance=Planar-1
   267,   771,   949,  1111,  1149,  1257,  1291,  1417,  1527,  1552,  1621,  1642,  1716,  1774,  1816,  1824
  1842,  1846,  1990,  2030,  2031,  2032,  2033,  2034,  2035,  2036,  2037,  2038,  2039,  2040,  2041,  2042
  2043,  2044,  2045,  2046,  2047,  2048,  2049,  2050,  2052,  2053,  2054,  2055,  2056,  2057,  2058,  2059
  2060,  2061,  2062,  2063,  2064,  2065,  2066,  9496,  9556,  9604,  9606,  9611,  9616,  9617,  9626,  9627
  9632,  9637,  9643,  9648,  9653,  9664,  9669,  9674,  9680,  9685,  9690,  9701,  9706,  9711, 10177, 10182
 10184, 10186, 10188, 10190, 10192, 10196, 10198, 10200, 10204, 10206, 10208, 10212, 10214, 10216, 10218, 10222
 10224, 10226, 10230, 10232, 10234, 10238, 10240, 10242, 10244, 10246, 10248, 10250, 10252, 10256, 10258, 10260
 10264, 10266, 10268, 10272, 10274, 10276, 10279, 10283, 10301, 10309, 10327, 10343, 10353, 10357, 10362, 10364
 10366, 10368, 10374, 10376, 10378, 10382, 10384, 10386, 10388, 10392, 10394, 10396, 10400, 10402, 10404, 10406
 10412, 10414, 10416, 10422, 10424, 10426, 10428, 10432, 10434, 10436, 10438, 10444, 10445, 10447, 10454, 10455
 10457, 10460, 10463, 10465, 10467, 10469, 10474, 10475, 10477, 10479, 10485, 10487, 10489, 10495, 10497, 10499
 10501, 10506, 10507, 10509, 10511, 10517, 10519, 10521, 10527, 10529, 10531, 10534, 10537, 10539, 10541, 10543
 10548, 10549, 10551, 10553, 10559, 10561, 10563, 10569, 10572
*Elset, elset=_BottomSurface_S2, internal, instance=Planar-1
     1,     6,     8,    16,    22,    30,    37,    39,    45,    48,    50,    52,    54,    56,    60,    73
   545,   548,   634,   635,   639,   640,   657,  1902,  2572,  2718,  2849,  2879,  2936,  2963,  2989,  3014
  3038,  3061,  3083,  3143,  3161,  3209,  3222,  3268,  3277,  3298,  3303,  4671,  4676,  4680,  9503,  9510
  9511,  9515,  9516,  9518,  9520,  9521,  9522,  9525,  9526,  9527,  9529,  9531,  9536,  9538,  9540,  9715
  9765,  9766,  9767,  9770,  9771,  9773,  9775,  9776,  9777,  9780,  9781,  9785,  9786,  9813,  9820,  9822
  9824,  9826,  9828,  9830,  9832,  9834,  9840,  9841,  9843,  9848,  9850,  9852,  9856,  9860,  9862,  9864
  9866,  9868,  9870,  9872,  9874,  9876,  9878,  9879,  9882,  9884,  9886,  9888,  9890,  9892,  9894,  9898
  9906,  9907,  9913,  9915,  9921,  9929,  9937,  9945,  9953,  9965,  9967,  9973,  9975,  9978,  9980,  9981
  9983,  9986,  9987,  9989,  9992,  9993,  9995,  9997, 10003, 10006, 10008, 10010, 10011, 10012, 10013, 10014
 10015, 10016, 10017, 10018, 10019, 10021, 10022, 10024, 10028, 10032, 10033, 10035, 10039, 10045, 10049, 10061
 10066, 10068, 10072, 10075, 10077, 10084, 10085, 10086, 10087, 10090, 10092, 10093, 10094, 10095, 10096, 10097
 10100, 10101, 10102, 10103, 10104, 10105, 10107, 10109, 10111, 10113, 10116, 10123, 10126, 10128, 10132, 10133
 10137, 10164, 10165, 10168, 10170, 10172, 10174
*Elset, elset=_BottomSurface_S1, internal, instance=Planar-1
   33, 9555
*Surface, type=ELEMENT, name=BottomSurface
_BottomSurface_S2, S2
_BottomSurface_S1, S1
*Elset, elset=_LeftRightTopBottom_S2, internal, instance=Planar-1
     1,     6,     8,    16,    22,    30,    37,    39,    45,    48,    50,    52,    54,    56,    60,    73
   267,   316,   318,   415,   459,   502,   545,   548,   634,   635,   639,   640,   657,   771,   949,  1074
  1111,  1113,  1149,  1151,  1188,  1257,  1291,  1417,  1503,  1527,  1529,  1552,  1554,  1578,  1621,  1642
  1716,  1763,  1774,  1776,  1788,  1799,  1816,  1824,  1842,  1846,  1902,  1904,  1990,  2030,  2031,  2032
  2033,  2034,  2035,  2036,  2037,  2038,  2039,  2040,  2041,  2042,  2043,  2044,  2045,  2046,  2047,  2048
  2049,  2050,  2052,  2053,  2054,  2055,  2056,  2057,  2058,  2059,  2060,  2061,  2062,  2063,  2064,  2065
  2066,  2068,  2111,  2154,  2197,  2536,  2572,  2575,  2613,  2650,  2718,  2849,  2879,  2936,  2963,  2965
  2989,  2991,  3014,  3016,  3038,  3040,  3061,  3083,  3143,  3161,  3209,  3222,  3225,  3238,  3250,  3261
  3268,  3277,  3298,  3303,  4671,  4676,  4680,  9496,  9503,  9510,  9511,  9515,  9516,  9518,  9520,  9521
  9522,  9525,  9526,  9527,  9529,  9531,  9536,  9538,  9540,  9555,  9556,  9562,  9563,  9564,  9565,  9566
  9574,  9575,  9576,  9577,  9578,  9586,  9587,  9588,  9589,  9590,  9598,  9599,  9600,  9601,  9602,  9604
  9606,  9611,  9616,  9617,  9626,  9627,  9632,  9637,  9643,  9648,  9653,  9664,  9669,  9674,  9680,  9685
  9690,  9701,  9706,  9711,  9715,  9721,  9722,  9723,  9724,  9725,  9733,  9734,  9735,  9736,  9737,  9745
  9746,  9747,  9748,  9749,  9757,  9758,  9759,  9760,  9761,  9765,  9766,  9767,  9770,  9771,  9773,  9775
  9776,  9777,  9780,  9781,  9785,  9786,  9813,  9820,  9822,  9824,  9826,  9828,  9830,  9832,  9834,  9840
  9841,  9843,  9848,  9850,  9852,  9856,  9860,  9862,  9864,  9866,  9868,  9870,  9872,  9874,  9876,  9878
  9879,  9882,  9884,  9886,  9888,  9890,  9892,  9894,  9898,  9906,  9907,  9913,  9915,  9921,  9929,  9937
  9945,  9953,  9965,  9967,  9973,  9975,  9978,  9980,  9981,  9983,  9986,  9987,  9989,  9992,  9993,  9995
  9997, 10003, 10006, 10008, 10010, 10011, 10012, 10013, 10014, 10015, 10016, 10017, 10018, 10019, 10021, 10022
 10024, 10028, 10032, 10033, 10035, 10039, 10045, 10049, 10061, 10066, 10068, 10072, 10075, 10077, 10084, 10085
** ... 18 like lines cut
*Elset, elset=_LeftRightTopBottom_S1, internal, instance=Planar-1
   33, 9555, 9556, 9604, 9715
*Surface, type=ELEMENT, name=LeftRightTopBottom
_LeftRightTopBottom_S2, S2
_LeftRightTopBottom_S1, S1
*Elset, elset=_LeftSurface_S2, internal, instance=Planar-1
  1904,  2068,  2111,  2154,  2197,  2536,  2575,  2613,  2650,  2965,  2991,  3016,  3040,  3225,  3238,  3250
  3261,  9604,  9721,  9722,  9723,  9724,  9725,  9733,  9734,  9735,  9736,  9737,  9745,  9746,  9747,  9748
  9749,  9757,  9758,  9759,  9760,  9761, 10576, 10578, 10682, 10691, 10694, 10696, 10698, 10700, 10702, 10704
 10713, 10716, 10718, 10720, 10722, 10724, 10726, 10728, 10730, 10739, 10742, 10744, 10746, 10748, 10750, 10752
 10754, 10756, 10765, 10768, 10770, 10772, 10774, 10776, 10778, 10874, 10876, 10878, 10880, 10882, 10894, 10896
 10898, 10900, 10902, 10904, 10906, 10918, 10920, 10922, 10924, 10926, 10928, 10930, 10942, 10944, 10946, 10947
 10950, 10952, 10954
*Elset, elset=_LeftSurface_S1, internal, instance=Planar-1
 9715,
*Surface, type=ELEMENT, name=LeftSurface
_LeftSurface_S2, S2
_LeftSurface_S1, S1
*Elset, elset=_LeftandRight_S2, internal, instance=Planar-1
   316,   318,   415,   459,   502,  1074,  1113,  1151,  1188,  1503,  1529,  1554,  1578,  1763,  1776,  1788
  1799,  1904,  2068,  2111,  2154,  2197,  2536,  2575,  2613,  2650,  2965,  2991,  3016,  3040,  3225,  3238
  3250,  3261,  9555,  9562,  9563,  9564,  9565,  9566,  9574,  9575,  9576,  9577,  9578,  9586,  9587,  9588
  9589,  9590,  9598,  9599,  9600,  9601,  9602,  9604,  9721,  9722,  9723,  9724,  9725,  9733,  9734,  9735
  9736,  9737,  9745,  9746,  9747,  9748,  9749,  9757,  9758,  9759,  9760,  9761, 10576, 10578, 10588, 10589
 10592, 10594, 10596, 10598, 10600, 10602, 10604, 10606, 10615, 10618, 10620, 10622, 10624, 10626, 10628, 10630
 10632, 10641, 10644, 10646, 10648, 10650, 10652, 10654, 10656, 10658, 10667, 10670, 10672, 10674, 10676, 10678
 10680, 10682, 10691, 10694, 10696, 10698, 10700, 10702, 10704, 10713, 10716, 10718, 10720, 10722, 10724, 10726
 10728, 10730, 10739, 10742, 10744, 10746, 10748, 10750, 10752, 10754, 10756, 10765, 10768, 10770, 10772, 10774
 10776, 10778, 10780, 10782, 10784, 10786, 10788, 10800, 10802, 10804, 10806, 10808, 10810, 10812, 10824, 10826
 10828, 10830, 10832, 10834, 10836, 10848, 10850, 10852, 10854, 10856, 10858, 10860, 10874, 10876, 10878, 10880
 10882, 10894, 10896, 10898, 10900, 10902, 10904, 10906, 10918, 10920, 10922, 10924, 10926, 10928, 10930, 10942
 10944, 10946, 10947, 10950, 10952, 10954
*Elset, elset=_LeftandRight_S1, internal, instance=Planar-1
 9556, 9715
*Surface, type=ELEMENT, name=LeftandRight
_LeftandRight_S2, S2
_LeftandRight_S1, S1
*Elset, elset=_RightSurface_S2, internal, instance=Planar-1
   316,   318,   415,   459,   502,  1074,  1113,  1151,  1188,  1503,  1529,  1554,  1578,  1763,  1776,  1788
  1799,  9555,  9562,  9563,  9564,  9565,  9566,  9574,  9575,  9576,  9577,  9578,  9586,  9587,  9588,  9589
  9590,  9598,  9599,  9600,  9601,  9602, 10588, 10589, 10592, 10594, 10596, 10598, 10600, 10602, 10604, 10606
 10615, 10618, 10620, 10622, 10624, 10626, 10628, 10630, 10632, 10641, 10644, 10646, 10648, 10650, 10652, 10654
 10656, 10658, 10667, 10670, 10672, 10674, 10676, 10678, 10680, 10780, 10782, 10784, 10786, 10788, 10800, 10802
 10804, 10806, 10808, 10810, 10812, 10824, 10826, 10828, 10830, 10832, 10834, 10836, 10848, 10850, 10852, 10854
 10856, 10858, 10860
*Elset, elset=_RightSurface_S1, internal, instance=Planar-1
 9556,
*Surface, type=ELEMENT, name=RightSurface
_RightSurface_S2, S2
_RightSurface_S1, S1
*Elset, elset=_TopSurface_S2, internal, instance=Planar-1
   267,   771,   949,  1111,  1149,  1257,  1291,  1417,  1527,  1552,  1621,  1642,  1716,  1774,  1816,  1824
  1842,  1846,  1990,  2030,  2031,  2032,  2033,  2034,  2035,  2036,  2037,  2038,  2039,  2040,  2041,  2042
  2043,  2044,  2045,  2046,  2047,  2048,  2049,  2050,  2052,  2053,  2054,  2055,  2056,  2057,  2058,  2059
  2060,  2061,  2062,  2063,  2064,  2065,  2066,  9496,  9556,  9606,  9611,  9616,  9617,  9626,  9627,  9632
  9637,  9643,  9648,  9653,  9664,  9669,  9674,  9680,  9685,  9690,  9701,  9706,  9711, 10177, 10182, 10184
 10186, 10188, 10190, 10192, 10196, 10198, 10200, 10204, 10206, 10208, 10212, 10214, 10216, 10218, 10222, 10224
 10226, 10230, 10232, 10234, 10238, 10240, 10242, 10244, 10246, 10248, 10250, 10252, 10256, 10258, 10260, 10264
 10266, 10268, 10272, 10274, 10276, 10279, 10283, 10301, 10309, 10327, 10343, 10353, 10357, 10362, 10364, 10366
 10368, 10374, 10376, 10378, 10382, 10384, 10386, 10388, 10392, 10394, 10396, 10400, 10402, 10404, 10406, 10412
 10414, 10416, 10422, 10424, 10426, 10428, 10432, 10434, 10436, 10438, 10444, 10445, 10447, 10454, 10455, 10457
 10460, 10463, 10465, 10467, 10469, 10474, 10475, 10477, 10479, 10485, 10487, 10489, 10495, 10497, 10499, 10501
 10506, 10507, 10509, 10511, 10517, 10519, 10521, 10527, 10529, 10531, 10534, 10537, 10539, 10541, 10543, 10548
 10549, 10551, 10553, 10559, 10561, 10563, 10569, 10572
*Elset, elset=_TopSurface_S1, internal, instance=Planar-1
 9604,
*Surface, type=ELEMENT, name=TopSurface
_TopSurface_S2, S2
_TopSurface_S1, S1
*End Assembly
*Amplitude, name=CompressionAmp
             0.,              1.,  5000000000000.,              1.
*Amplitude, name=GravityAmp, time=TOTAL TIME
             0.,              1., 100000000000000.,              1.
*Amplitude, name=Vx, time=TOTAL TIME
             0.,              1.,  5000000000000.,            0.75
*Amplitude, name=Vy
             0.,              1.,  5000000000000.,            1.25
** 
** MATERIALS
** 
*Material, name=Inclusion
*Density
2700.,
*Depvar
     28,
*User Material, constants=3, type=THERMAL
 2.5,1050.,2700.
*User Material, constants=18, type=MECHANICAL
 2.5e+10,     0.25,  100000.,       0.,      3.3,      30.,      30.,    2700.
    1050.,  186000.,     8.31, 3.16e-26,    2e+13,      10.,     273.,  3.5e-05
    0.005,    0.035
*Material, name=Matrix
*Density
2700.,
*Depvar
     28,
*User Material, constants=3, type=THERMAL
 2.5,1050.,2700.
*User Material, constants=18, type=MECHANICAL
 2.5e+10,    0.25,   5e+07,      0.,      3.,     30.,     30.,   2700.
   1050., 276000.,    8.31, 3.2e-20,   2e+13,     10.,    273., 3.5e-05
   0.005,   0.035
** 
** BOUNDARY CONDITIONS
** 
** Name: FixedBottomBoundary Type: Velocity/Angular velocity
*Boundary, type=VELOCITY
BottomBoundary, 2, 2
** 
** PREDEFINED FIELDS
** 
** Name: TemperatureGradient   Type: Temperature
*Initial Conditions, type=TEMPERATURE
Planar-1.EntireGeometry, 673.
** ----------------------------------------------------------------
** 
** STEP: Compress
** 
*Step, name=Compress, nlgeom=YES, inc=1000000
*Coupled Temperature-displacement, creep=none, deltmx=1e+13, stabilize=0.0002, allsdtol=0.05, continue=NO
1e-14, 5e+12, 1e-14, 5e+12
** 
** BOUNDARY CONDITIONS
** 
** Name: CompressLeftBoundary Type: Velocity/Angular velocity
*Boundary, amplitude=Vx, type=VELOCITY
LeftBoundary, 1, 1, 1.75e-09
** Name: CompressRightBoundary Type: Velocity/Angular velocity
*Boundary, amplitude=Vx, type=VELOCITY
RightBoundary, 1, 1, -1.75e-09
** Name: ExtendTopBoundary Type: Velocity/Angular velocity
*Boundary, amplitude=Vy, type=VELOCITY
Top_Surface, 2, 2, 2e-09
** 
** LOADS
** 
** Name: AdiabaticSides   Type: Surface heat flux
*Dsflux, amplitude=CompressionAmp
LeftRightTopBottom, S, 1e-99
** Name: ZeroTraction   Type: Surface traction
*Dsload, amplitude=CompressionAmp
LeftRightTopBottom, TRSHR, 1e-99, 0.868243, 0.496139, 0.
** 
** CONTROLS
** 
*Controls, reset
*Controls, parameters=time incrementation
, , , , , , , 52, , , 
** 
** OUTPUT REQUESTS
** 
*Restart, write, frequency=0
** 
** FIELD OUTPUT: Compress
** 
*Output, field
*Node Output
NT, U, V
*Element Output, directions=YES
BF, E, EE, ER, ESDV, GRAV, IE, LE, MISES, MISESONLY, NE, P, S, SDV, TEMP
*Radiation Output
FTEMP, 
*Contact Output
CSTRESSERI, 
** 
** HISTORY OUTPUT: InclusionElement
** 
*Output, history
*Element Output, elset=InclusionElement
E11, E12, E13, E22, E23, E33, EP, INV3, PRESS, S11, S12, S13, S22, S23, S33, SDV
SP, TEMP, TRESC
** 
** HISTORY OUTPUT: MatrixElement
** 
*Element Output, elset=MatrixElement
E11, E12, E13, E22, E23, E33, EP, INV3, PRESS, S11, S12, S13, S22, S23, S33, SDV
SP, TEMP, TRESC
** 
** HISTORY OUTPUT: NearInclusionElement
** 
*Element Output, elset=NearWeakZone
E11, E12, E13, E22, E23, E33, EP, INV3, PRESS, S11, S12, S13, S22, S23, S33, SDV
SP, TEMP, TRESC
** 
** HISTORY OUTPUT: ShearBandElement
** 
*Element Output, elset=ShearBandElement
E11, E12, E13, E22, E23, E33, EP, INV3, PRESS, S11, S12, S13, S22, S23, S33, SDV
SP, TEMP, TRESC
*End Step
