*Heading
** Job name: 000_Duretz_et_al_2014_R_EQ_3km_200by100cells_QUAD_LO Model name: 000_Duretz_et_al_2014_R_EQ_3km_200by100cells_QUAD_LO
** Generated by: Abaqus/CAE 2019
*Preprint, echo=NO, model=NO, history=NO, contact=NO
**
** PARTS
**
*Part, name=Planar
*End Part
**  
**
** ASSEMBLY
**
*Assembly, name=Assembly
**  
*Instance, name=Planar-1, part=Planar
*Node
      1,   -142805.25,      896600.
      2,  -136804.938,      896600.
      3,     -104800.,      896600.
      4,     -104800.,      936600.
      5,     -174800.,      896600.
      6,     -174800.,      936600.
      7,  -136864.391,   897162.125
      8,  -137013.094,   897665.375
      9,  -137224.891,      898098.
     10,    -137481.5,      898465.
     11,  -137778.203,      898779.
     12,  -138110.969,   899043.125
     13,  -138481.219,   899259.312
     14,  -138879.594,   899420.875
     15,  -139298.531,   899524.062
     16,  -139719.047,   899565.938
     17,  -140145.203,   899547.812
     18,  -140558.844,   899470.938
     19,  -140953.688,   899338.625
     20,  -141322.094,   899155.375
** ... 20696 like lines cut
*Element, type=CPE4T
  1,  28,  29, 645, 643
  2,  29,  30, 646, 645
  3,  30,  31, 647, 646
  4,  31,  32, 648, 647
  5,  32,  33, 629, 648
  6, 643, 645, 649, 642
  7, 645, 646, 650, 649
  8, 646, 647, 651, 650
  9, 647, 648, 652, 651
 10, 648, 629, 630, 652
 11, 642, 649, 653, 641
 12, 649, 650, 654, 653
 13, 650, 651, 655, 654
 14, 651, 652, 656, 655
 15, 652, 630, 631, 656
 16, 641, 653, 657, 640
 17, 653, 654, 658, 657
 18, 654, 655, 659, 658
 19, 655, 656, 660, 659
 20, 656, 631, 632, 660
** ... 20391 like lines cut
*Nset, nset=Inclusion
   1,   2,   7,   8,   9,  10,  11,  12,  13,  14,  15,  16,  17,  18,  19,  20
  21,  22,  23,  24,  25,  26,  27,  28,  29,  30,  31,  32,  33,  34,  35,  36
  37,  38,  39,  40,  41,  42, 629, 630, 631, 632, 633, 634, 635, 636, 637, 638
 639, 640, 641, 642, 643, 644, 645, 646, 647, 648, 649, 650, 651, 652, 653, 654
 655, 656, 657, 658, 659, 660, 661, 662, 663, 664, 665, 666, 667, 668, 669, 670
 671, 672, 673, 674, 675, 676, 677, 678, 679, 680, 681, 682, 683, 684, 685, 686
 687, 688, 689, 690, 691, 692, 693, 694, 695, 696, 697, 698, 699, 700, 701, 702
 703, 704, 705, 706, 707, 708, 709, 710, 711, 712, 713, 714, 715, 716
*Elset, elset=Inclusion, generate
   1,  106,    1
*Nset, nset=EntireGeometry, generate
     1,  20716,      1
*Elset, elset=EntireGeometry, generate
     1,  20411,      1
*Nset, nset=Matrix
     1,     2,     3,     4,     5,     6,     7,     8,     9,    10,    11,    12,    13,    14,    15,    16
    17,    18,    19,    20,    21,    22,    23,    24,    25,    26,    43,    44,    45,    46,    47,    48
    49,    50,    51,    52,    53,    54,    55,    56,    57,    58,    59,    60,    61,    62,    63,    64
    65,    66,    67,    68,    69,    70,    71,    72,    73,    74,    75,    76,    77,    78,    79,    80
    81,    82,    83,    84,    85,    86,    87,    88,    89,    90,    91,    92,    93,    94,    95,    96
    97,    98,    99,   100,   101,   102,   103,   104,   105,   106,   107,   108,   109,   110,   111,   112
   113,   114,   115,   116,   117,   118,   119,   120,   121,   122,   123,   124,   125,   126,   127,   128
   129,   130,   131,   132,   133,   134,   135,   136,   137,   138,   139,   140,   141,   142,   143,   144
   145,   146,   147,   148,   149,   150,   151,   152,   153,   154,   155,   156,   157,   158,   159,   160
   161,   162,   163,   164,   165,   166,   167,   168,   169,   170,   171,   172,   173,   174,   175,   176
   177,   178,   179,   180,   181,   182,   183,   184,   185,   186,   187,   188,   189,   190,   191,   192
   193,   194,   195,   196,   197,   198,   199,   200,   201,   202,   203,   204,   205,   206,   207,   208
   209,   210,   211,   212,   213,   214,   215,   216,   217,   218,   219,   220,   221,   222,   223,   224
   225,   226,   227,   228,   229,   230,   231,   232,   233,   234,   235,   236,   237,   238,   239,   240
   241,   242,   243,   244,   245,   246,   247,   248,   249,   250,   251,   252,   253,   254,   255,   256
   257,   258,   259,   260,   261,   262,   263,   264,   265,   266,   267,   268,   269,   270,   271,   272
   273,   274,   275,   276,   277,   278,   279,   280,   281,   282,   283,   284,   285,   286,   287,   288
   289,   290,   291,   292,   293,   294,   295,   296,   297,   298,   299,   300,   301,   302,   303,   304
   305,   306,   307,   308,   309,   310,   311,   312,   313,   314,   315,   316,   317,   318,   319,   320
   321,   322,   323,   324,   325,   326,   327,   328,   329,   330,   331,   332,   333,   334,   335,   336
** ... 1269 like lines cut
*Elset, elset=Matrix, generate
   107,  20411,      1
** Section: Inclusion
*Solid Section, elset=Inclusion, material=Inclusion
,
** Section: Matrix
*Solid Section, elset=Matrix, material=Matrix
,
*End Instance
**  
*Elset, elset=AllElements, instance=Planar-1, generate
     1,  20411,      1
*Nset, nset=AllNodes, instance=Planar-1, generate
     1,  20716,      1
*Nset, nset=BottomBoundary, instance=Planar-1
   1,   2,   3,   5,  27,  28,  29,  30,  31,  32,  33,  34,  35,  36,  37,  38
  39,  40,  41,  42,  43,  44,  45,  46,  47,  48,  49,  50,  51,  52,  53,  54
  55,  56,  57,  58,  59,  60,  61,  62,  63,  64,  65,  66,  67,  68,  69,  70
  71,  72,  73,  74,  75,  76,  77,  78,  79,  80,  81,  82,  83,  84,  85,  86
  87,  88,  89,  90,  91,  92,  93,  94,  95,  96,  97,  98,  99, 100, 101, 102
 103, 104, 105, 106, 107, 108, 109, 110, 111, 112, 113, 114, 115, 116, 117, 118
 119, 120, 121, 122, 123, 124, 125, 126, 127, 128, 129, 130, 131, 132, 133, 134
 135, 536, 537, 538, 539, 540, 541, 542, 543, 544, 545, 546, 547, 548, 549, 550
 551, 552, 553, 554, 555, 556, 557, 558, 559, 560, 561, 562, 563, 564, 565, 566
 567, 568, 569, 570, 571, 572, 573, 574, 575, 576, 577, 578, 579, 580, 581, 582
 583, 584, 585, 586, 587, 588, 589, 590, 591, 592, 593, 594, 595, 596, 597, 598
 599, 600, 601, 602, 603, 604, 605, 606, 607, 608, 609, 610, 611, 612, 613, 614
 615, 616, 617, 618, 619, 620, 621, 622, 623, 624, 625, 626, 627, 628
*Elset, elset=BottomBoundary, instance=Planar-1
     1,     2,     3,     4,     5,    40,    45,    70,    74,    78,    82,    86,    90,    94,    95,    96
    97,   107,   108,   109,   110,   111,   112,   113,   114,   115,   116,   117,   118,   119,   120,   121
   122,   123,   124,   125,   126,   127,   128,   129,   130,   131,   132,   133,   134,   135,   136,   137
   138,   139,   140,   141,   142,   143,   144,  2123,  2165,  2207,  2249,  2291,  2333,  2375,  2417,  2459
  2501,  2543,  2585,  2627,  2669,  2711,  2753,  2795,  2837,  2879,  2921,  2963,  3005,  3047,  3089,  3131
  3173,  3215,  3257,  3299,  3341,  3383,  3425,  3467,  3509,  3551,  3593,  3635,  3677,  3719,  3761,  3803
  3845,  3887,  3929,  3971,  4013,  4055,  4097,  4139,  4181,  4223,  4265,  4307,  4349,  4391,  4433, 11329
 11331, 11333, 11335, 11337, 11339, 11341, 11343, 11345, 11347, 11349, 11351, 11353, 11355, 11357, 11359, 11361
 11363, 11364, 11365, 14404, 14446, 14488, 14530, 14572, 14614, 14656, 14698, 14740, 14782, 14824, 14866, 14908
 14950, 14992, 15034, 15076, 15118, 15160, 15202, 15244, 15286, 15328, 15370, 15412, 15454, 15496, 15538, 15580
 15622, 15664, 15706, 15748, 15790, 15832, 15874, 15916, 15958, 16000, 16042, 16084, 16126, 16168, 16210, 16252
 16294, 16336, 16378, 16420, 16462, 16504, 16546, 16588, 16630, 16672, 16714, 16756, 16798, 16840, 16882, 16924
 16966, 17008, 17050, 17092, 17134, 17176, 17218, 17260, 17302, 17344, 17386, 17428, 17470
*Nset, nset=EntireGeometry, instance=Planar-1, generate
     1,  20716,      1
*Elset, elset=EntireGeometry, instance=Planar-1, generate
     1,  20411,      1
*Nset, nset=Inclusion, instance=Planar-1
   1,   2,   7,   8,   9,  10,  11,  12,  13,  14,  15,  16,  17,  18,  19,  20
  21,  22,  23,  24,  25,  26,  27,  28,  29,  30,  31,  32,  33,  34,  35,  36
  37,  38,  39,  40,  41,  42, 629, 630, 631, 632, 633, 634, 635, 636, 637, 638
 639, 640, 641, 642, 643, 644, 645, 646, 647, 648, 649, 650, 651, 652, 653, 654
 655, 656, 657, 658, 659, 660, 661, 662, 663, 664, 665, 666, 667, 668, 669, 670
 671, 672, 673, 674, 675, 676, 677, 678, 679, 680, 681, 682, 683, 684, 685, 686
 687, 688, 689, 690, 691, 692, 693, 694, 695, 696, 697, 698, 699, 700, 701, 702
 703, 704, 705, 706, 707, 708, 709, 710, 711, 712, 713, 714, 715, 716
*Elset, elset=Inclusion, instance=Planar-1, generate
   1,  106,    1
*Elset, elset=InclusionElement, instance=Planar-1
 68,
*Nset, nset=LeftBoundary, instance=Planar-1
   5,   6, 437, 438, 439, 440, 441, 442, 443, 444, 445, 446, 447, 448, 449, 450
 451, 452, 453, 454, 455, 456, 457, 458, 459, 460, 461, 462, 463, 464, 465, 466
 467, 468, 469, 470, 471, 472, 473, 474, 475, 476, 477, 478, 479, 480, 481, 482
 483, 484, 485, 486, 487, 488, 489, 490, 491, 492, 493, 494, 495, 496, 497, 498
 499, 500, 501, 502, 503, 504, 505, 506, 507, 508, 509, 510, 511, 512, 513, 514
 515, 516, 517, 518, 519, 520, 521, 522, 523, 524, 525, 526, 527, 528, 529, 530
 531, 532, 533, 534, 535
*Elset, elset=LeftBoundary, instance=Planar-1
 17470, 17471, 17472, 17473, 17474, 17475, 17476, 17477, 17478, 17479, 17480, 17481, 17482, 17483, 17484, 17485
 17486, 17487, 17488, 17489, 17490, 17491, 17492, 17493, 17494, 17495, 17496, 17497, 17498, 17499, 17500, 17501
 17502, 17503, 17504, 17505, 17506, 17507, 17508, 17509, 17510, 17511, 17512, 17562, 17612, 17662, 17712, 17762
 17812, 17862, 17912, 17962, 18012, 18062, 18112, 18162, 18212, 18262, 18312, 18362, 18412, 18462, 18512, 18562
 18612, 18662, 18712, 18762, 18812, 18862, 18912, 18962, 19012, 19062, 19112, 19162, 19212, 19262, 19312, 19362
 19412, 19462, 19512, 19562, 19612, 19662, 19712, 19762, 19812, 19862, 19912, 19962, 20012, 20062, 20112, 20162
 20212, 20262, 20312, 20362
*Elset, elset=MatrixElement, instance=Planar-1
 14148,
*Elset, elset=NearWeakZone, instance=Planar-1
 1385,
*Nset, nset=RightBoundary, instance=Planar-1
   3,   4, 136, 137, 138, 139, 140, 141, 142, 143, 144, 145, 146, 147, 148, 149
 150, 151, 152, 153, 154, 155, 156, 157, 158, 159, 160, 161, 162, 163, 164, 165
 166, 167, 168, 169, 170, 171, 172, 173, 174, 175, 176, 177, 178, 179, 180, 181
 182, 183, 184, 185, 186, 187, 188, 189, 190, 191, 192, 193, 194, 195, 196, 197
 198, 199, 200, 201, 202, 203, 204, 205, 206, 207, 208, 209, 210, 211, 212, 213
 214, 215, 216, 217, 218, 219, 220, 221, 222, 223, 224, 225, 226, 227, 228, 229
 230, 231, 232, 233, 234
*Elset, elset=RightBoundary, instance=Planar-1
  4392,  4393,  4394,  4395,  4396,  4397,  4398,  4399,  4400,  4401,  4402,  4403,  4404,  4405,  4406,  4407
  4408,  4409,  4410,  4411,  4412,  4413,  4414,  4415,  4416,  4417,  4418,  4419,  4420,  4421,  4422,  4423
  4424,  4425,  4426,  4427,  4428,  4429,  4430,  4431,  4432,  4433,  4536,  4639,  4742,  4845,  4948,  5051
  5154,  5257,  5360,  5463,  5566,  5669,  5772,  5875,  5978,  6081,  6184,  6287,  6390,  6493,  6596,  6699
  6802,  6905,  7008,  7111,  7214,  7317,  7420,  7523,  7626,  7729,  7832,  7935,  8038,  8141,  8244,  8347
  8450,  8553,  8656,  8759,  8862,  8965,  9068,  9171,  9274,  9377,  9480,  9583,  9686,  9789,  9892,  9995
 10098, 10201, 10304, 10407
*Elset, elset=ShearBandElement, instance=Planar-1
 19676,
*Nset, nset=Top_Surface, instance=Planar-1
   4,   6, 235, 236, 237, 238, 239, 240, 241, 242, 243, 244, 245, 246, 247, 248
 249, 250, 251, 252, 253, 254, 255, 256, 257, 258, 259, 260, 261, 262, 263, 264
 265, 266, 267, 268, 269, 270, 271, 272, 273, 274, 275, 276, 277, 278, 279, 280
 281, 282, 283, 284, 285, 286, 287, 288, 289, 290, 291, 292, 293, 294, 295, 296
 297, 298, 299, 300, 301, 302, 303, 304, 305, 306, 307, 308, 309, 310, 311, 312
 313, 314, 315, 316, 317, 318, 319, 320, 321, 322, 323, 324, 325, 326, 327, 328
 329, 330, 331, 332, 333, 334, 335, 336, 337, 338, 339, 340, 341, 342, 343, 344
 345, 346, 347, 348, 349, 350, 351, 352, 353, 354, 355, 356, 357, 358, 359, 360
 361, 362, 363, 364, 365, 366, 367, 368, 369, 370, 371, 372, 373, 374, 375, 376
 377, 378, 379, 380, 381, 382, 383, 384, 385, 386, 387, 388, 389, 390, 391, 392
 393, 394, 395, 396, 397, 398, 399, 400, 401, 402, 403, 404, 405, 406, 407, 408
 409, 410, 411, 412, 413, 414, 415, 416, 417, 418, 419, 420, 421, 422, 423, 424
 425, 426, 427, 428, 429, 430, 431, 432, 433, 434, 435, 436
*Elset, elset=Top_Surface, instance=Planar-1
 10305, 10306, 10307, 10308, 10309, 10310, 10311, 10312, 10313, 10314, 10315, 10316, 10317, 10318, 10319, 10320
 10321, 10322, 10323, 10324, 10325, 10326, 10327, 10328, 10329, 10330, 10331, 10332, 10333, 10334, 10335, 10336
 10337, 10338, 10339, 10340, 10341, 10342, 10343, 10344, 10345, 10346, 10347, 10348, 10349, 10350, 10351, 10352
 10353, 10354, 10355, 10356, 10357, 10358, 10359, 10360, 10361, 10362, 10363, 10364, 10365, 10366, 10367, 10368
 10369, 10370, 10371, 10372, 10373, 10374, 10375, 10376, 10377, 10378, 10379, 10380, 10381, 10382, 10383, 10384
 10385, 10386, 10387, 10388, 10389, 10390, 10391, 10392, 10393, 10394, 10395, 10396, 10397, 10398, 10399, 10400
 10401, 10402, 10403, 10404, 10405, 10406, 10407, 11504, 11562, 11620, 11678, 11736, 11794, 11852, 11910, 11968
 12026, 12084, 12142, 12200, 12258, 12316, 12374, 12432, 12490, 12548, 12606, 12664, 12722, 12780, 12838, 12896
 12954, 13012, 13070, 13128, 13186, 13244, 13302, 13360, 13418, 13476, 13534, 13592, 13650, 13708, 13766, 13824
 13882, 13940, 13998, 14056, 14114, 14172, 14230, 14288, 14346, 20362, 20363, 20364, 20365, 20366, 20367, 20368
 20369, 20370, 20371, 20372, 20373, 20374, 20375, 20376, 20377, 20378, 20379, 20380, 20381, 20382, 20383, 20384
 20385, 20386, 20387, 20388, 20389, 20390, 20391, 20392, 20393, 20394, 20395, 20396, 20397, 20398, 20399, 20400
 20401, 20402, 20403, 20404, 20405, 20406, 20407, 20408, 20409, 20410, 20411
*Elset, elset=_BottomSurface_S1, internal, instance=Planar-1
     1,     2,     3,     4,     5,    95,    96,    97,   107,   108,   109,   110,   111,   112,   113,   114
   115,   116,   117,   118,   119,   120,   121,   122,   123,   124,   125,   126,   127,   128,   129,   130
   131,   132,   133,   134,   135,   136,   137,   138,   139,   140,   141,   142,   143,   144, 11364, 11365
*Elset, elset=_BottomSurface_S2, internal, instance=Planar-1
    40,    45,    70,    74,    78,    82,    86,    90,    94,  2123,  2165,  2207,  2249,  2291,  2333,  2375
  2417,  2459,  2501,  2543,  2585,  2627,  2669,  2711,  2753,  2795,  2837,  2879,  2921,  2963,  3005,  3047
  3089,  3131,  3173,  3215,  3257,  3299,  3341,  3383,  3425,  3467,  3509,  3551,  3593,  3635,  3677,  3719
  3761,  3803,  3845,  3887,  3929,  3971,  4013,  4055,  4097,  4139,  4181,  4223,  4265,  4307,  4349,  4391
  4433, 11329, 11331, 11333, 11335, 11337, 11339, 11341, 11343, 11345, 11347, 11349, 11351, 11353, 11355, 11357
 11359, 11361, 11363
*Elset, elset=_BottomSurface_S4, internal, instance=Planar-1, generate
 14404,  17470,     42
*Surface, type=ELEMENT, name=BottomSurface
_BottomSurface_S1, S1
_BottomSurface_S2, S2
_BottomSurface_S4, S4
*Elset, elset=_LeftRightTopBottom_S1, internal, instance=Planar-1
     1,     2,     3,     4,     5,    95,    96,    97,   107,   108,   109,   110,   111,   112,   113,   114
   115,   116,   117,   118,   119,   120,   121,   122,   123,   124,   125,   126,   127,   128,   129,   130
   131,   132,   133,   134,   135,   136,   137,   138,   139,   140,   141,   142,   143,   144, 11364, 11365
*Elset, elset=_LeftRightTopBottom_S2, internal, instance=Planar-1
    40,    45,    70,    74,    78,    82,    86,    90,    94,  2123,  2165,  2207,  2249,  2291,  2333,  2375
  2417,  2459,  2501,  2543,  2585,  2627,  2669,  2711,  2753,  2795,  2837,  2879,  2921,  2963,  3005,  3047
  3089,  3131,  3173,  3215,  3257,  3299,  3341,  3383,  3425,  3467,  3509,  3551,  3593,  3635,  3677,  3719
  3761,  3803,  3845,  3887,  3929,  3971,  4013,  4055,  4097,  4139,  4181,  4223,  4265,  4307,  4349,  4391
  4433,  4536,  4639,  4742,  4845,  4948,  5051,  5154,  5257,  5360,  5463,  5566,  5669,  5772,  5875,  5978
  6081,  6184,  6287,  6390,  6493,  6596,  6699,  6802,  6905,  7008,  7111,  7214,  7317,  7420,  7523,  7626
  7729,  7832,  7935,  8038,  8141,  8244,  8347,  8450,  8553,  8656,  8759,  8862,  8965,  9068,  9171,  9274
  9377,  9480,  9583,  9686,  9789,  9892,  9995, 10098, 10201, 10304, 10407, 11329, 11331, 11333, 11335, 11337
 11339, 11341, 11343, 11345, 11347, 11349, 11351, 11353, 11355, 11357, 11359, 11361, 11363
*Elset, elset=_LeftRightTopBottom_S3, internal, instance=Planar-1
  4392,  4393,  4394,  4395,  4396,  4397,  4398,  4399,  4400,  4401,  4402,  4403,  4404,  4405,  4406,  4407
  4408,  4409,  4410,  4411,  4412,  4413,  4414,  4415,  4416,  4417,  4418,  4419,  4420,  4421,  4422,  4423
  4424,  4425,  4426,  4427,  4428,  4429,  4430,  4431,  4432,  4433, 10305, 10306, 10307, 10308, 10309, 10310
 10311, 10312, 10313, 10314, 10315, 10316, 10317, 10318, 10319, 10320, 10321, 10322, 10323, 10324, 10325, 10326
 10327, 10328, 10329, 10330, 10331, 10332, 10333, 10334, 10335, 10336, 10337, 10338, 10339, 10340, 10341, 10342
 10343, 10344, 10345, 10346, 10347, 10348, 10349, 10350, 10351, 10352, 10353, 10354, 10355, 10356, 10357, 10358
 10359, 10360, 10361, 10362, 10363, 10364, 10365, 10366, 10367, 10368, 10369, 10370, 10371, 10372, 10373, 10374
 10375, 10376, 10377, 10378, 10379, 10380, 10381, 10382, 10383, 10384, 10385, 10386, 10387, 10388, 10389, 10390
 10391, 10392, 10393, 10394, 10395, 10396, 10397, 10398, 10399, 10400, 10401, 10402, 10403, 10404, 10405, 10406
 10407, 17470, 17471, 17472, 17473, 17474, 17475, 17476, 17477, 17478, 17479, 17480, 17481, 17482, 17483, 17484
 17485, 17486, 17487, 17488, 17489, 17490, 17491, 17492, 17493, 17494, 17495, 17496, 17497, 17498, 17499, 17500
 17501, 17502, 17503, 17504, 17505, 17506, 17507, 17508, 17509, 17510, 17511, 20362, 20363, 20364, 20365, 20366
 20367, 20368, 20369, 20370, 20371, 20372, 20373, 20374, 20375, 20376, 20377, 20378, 20379, 20380, 20381, 20382
 20383, 20384, 20385, 20386, 20387, 20388, 20389, 20390, 20391, 20392, 20393, 20394, 20395, 20396, 20397, 20398
 20399, 20400, 20401, 20402, 20403, 20404, 20405, 20406, 20407, 20408, 20409, 20410, 20411
*Elset, elset=_LeftRightTopBottom_S4, internal, instance=Planar-1
 11504, 11562, 11620, 11678, 11736, 11794, 11852, 11910, 11968, 12026, 12084, 12142, 12200, 12258, 12316, 12374
 12432, 12490, 12548, 12606, 12664, 12722, 12780, 12838, 12896, 12954, 13012, 13070, 13128, 13186, 13244, 13302
 13360, 13418, 13476, 13534, 13592, 13650, 13708, 13766, 13824, 13882, 13940, 13998, 14056, 14114, 14172, 14230
 14288, 14346, 14404, 14446, 14488, 14530, 14572, 14614, 14656, 14698, 14740, 14782, 14824, 14866, 14908, 14950
 14992, 15034, 15076, 15118, 15160, 15202, 15244, 15286, 15328, 15370, 15412, 15454, 15496, 15538, 15580, 15622
 15664, 15706, 15748, 15790, 15832, 15874, 15916, 15958, 16000, 16042, 16084, 16126, 16168, 16210, 16252, 16294
 16336, 16378, 16420, 16462, 16504, 16546, 16588, 16630, 16672, 16714, 16756, 16798, 16840, 16882, 16924, 16966
 17008, 17050, 17092, 17134, 17176, 17218, 17260, 17302, 17344, 17386, 17428, 17470, 17512, 17562, 17612, 17662
 17712, 17762, 17812, 17862, 17912, 17962, 18012, 18062, 18112, 18162, 18212, 18262, 18312, 18362, 18412, 18462
 18512, 18562, 18612, 18662, 18712, 18762, 18812, 18862, 18912, 18962, 19012, 19062, 19112, 19162, 19212, 19262
 19312, 19362, 19412, 19462, 19512, 19562, 19612, 19662, 19712, 19762, 19812, 19862, 19912, 19962, 20012, 20062
 20112, 20162, 20212, 20262, 20312, 20362
*Surface, type=ELEMENT, name=LeftRightTopBottom
_LeftRightTopBottom_S1, S1
_LeftRightTopBottom_S2, S2
_LeftRightTopBottom_S4, S4
_LeftRightTopBottom_S3, S3
*Elset, elset=_LeftSurface_S3, internal, instance=Planar-1, generate
 17470,  17511,      1
*Elset, elset=_LeftSurface_S4, internal, instance=Planar-1, generate
 17512,  20362,     50
*Surface, type=ELEMENT, name=LeftSurface
_LeftSurface_S3, S3
_LeftSurface_S4, S4
*Elset, elset=_LeftandRight_S3, internal, instance=Planar-1
  4392,  4393,  4394,  4395,  4396,  4397,  4398,  4399,  4400,  4401,  4402,  4403,  4404,  4405,  4406,  4407
  4408,  4409,  4410,  4411,  4412,  4413,  4414,  4415,  4416,  4417,  4418,  4419,  4420,  4421,  4422,  4423
  4424,  4425,  4426,  4427,  4428,  4429,  4430,  4431,  4432,  4433, 17470, 17471, 17472, 17473, 17474, 17475
 17476, 17477, 17478, 17479, 17480, 17481, 17482, 17483, 17484, 17485, 17486, 17487, 17488, 17489, 17490, 17491
 17492, 17493, 17494, 17495, 17496, 17497, 17498, 17499, 17500, 17501, 17502, 17503, 17504, 17505, 17506, 17507
 17508, 17509, 17510, 17511
*Elset, elset=_LeftandRight_S2, internal, instance=Planar-1, generate
  4536,  10407,    103
*Elset, elset=_LeftandRight_S4, internal, instance=Planar-1, generate
 17512,  20362,     50
*Surface, type=ELEMENT, name=LeftandRight
_LeftandRight_S3, S3
_LeftandRight_S2, S2
_LeftandRight_S4, S4
*Elset, elset=_RightSurface_S3, internal, instance=Planar-1, generate
 4392,  4433,     1
*Elset, elset=_RightSurface_S2, internal, instance=Planar-1, generate
  4536,  10407,    103
*Surface, type=ELEMENT, name=RightSurface
_RightSurface_S3, S3
_RightSurface_S2, S2
*Elset, elset=_TopSurface_S3, internal, instance=Planar-1
 10305, 10306, 10307, 10308, 10309, 10310, 10311, 10312, 10313, 10314, 10315, 10316, 10317, 10318, 10319, 10320
 10321, 10322, 10323, 10324, 10325, 10326, 10327, 10328, 10329, 10330, 10331, 10332, 10333, 10334, 10335, 10336
 10337, 10338, 10339, 10340, 10341, 10342, 10343, 10344, 10345, 10346, 10347, 10348, 10349, 10350, 10351, 10352
 10353, 10354, 10355, 10356, 10357, 10358, 10359, 10360, 10361, 10362, 10363, 10364, 10365, 10366, 10367, 10368
 10369, 10370, 10371, 10372, 10373, 10374, 10375, 10376, 10377, 10378, 10379, 10380, 10381, 10382, 10383, 10384
 10385, 10386, 10387, 10388, 10389, 10390, 10391, 10392, 10393, 10394, 10395, 10396, 10397, 10398, 10399, 10400
 10401, 10402, 10403, 10404, 10405, 10406, 10407, 20362, 20363, 20364, 20365, 20366, 20367, 20368, 20369, 20370
 20371, 20372, 20373, 20374, 20375, 20376, 20377, 20378, 20379, 20380, 20381, 20382, 20383, 20384, 20385, 20386
 20387, 20388, 20389, 20390, 20391, 20392, 20393, 20394, 20395, 20396, 20397, 20398, 20399, 20400, 20401, 20402
 20403, 20404, 20405, 20406, 20407, 20408, 20409, 20410, 20411
*Elset, elset=_TopSurface_S4, internal, instance=Planar-1, generate
 11504,  14346,     58
*Surface, type=ELEMENT, name=TopSurface
_TopSurface_S3, S3
_TopSurface_S4, S4
*End Assembly
*Amplitude, name=CompressionAmp
             0.,              1.,  5000000000000.,              1.
*Amplitude, name=GravityAmp, time=TOTAL TIME
             0.,              1., 100000000000000.,              1.
*Amplitude, name=Vx, time=TOTAL TIME
             0.,              1.,  5000000000000.,            0.75
*Amplitude, name=Vy
             0.,              1.,  5000000000000.,            1.25
** 
** MATERIALS
** 
*Material, name=Inclusion
*Density
2700.,
*Depvar
     28,
*User Material, constants=18, type=MECHANICAL
 2.5e+10,     0.25,  100000.,       0.,      3.3,      30.,      30.,    2700.
    1050.,  186000.,     8.31, 3.16e-26,    2e+13,      10.,     273.,  3.5e-05
    0.005,    0.035
*User Material, constants=3, type=THERMAL
 2.5,1050.,2700.
*Material, name=Matrix
*Density
2700.,
*Depvar
     28,
*User Material, constants=18, type=MECHANICAL
 2.5e+10,    0.25,   5e+07,      0.,      3.,     30.,     30.,   2700.
   1050., 276000.,    8.31, 3.2e-20,   2e+13,     10.,    273., 3.5e-05
   0.005,   0.035
*User Material, constants=3, type=THERMAL
 2.5,1050.,2700.
** 
** BOUNDARY CONDITIONS
** 
** Name: FixedBottomBoundary Type: Velocity/Angular velocity
*Boundary, type=VELOCITY
BottomBoundary, 2, 2
** 
** PREDEFINED FIELDS
** 
** Name: TemperatureGradient   Type: Temperature
*Initial Conditions, type=TEMPERATURE
Planar-1.EntireGeometry, 673.
** ----------------------------------------------------------------
** 
** STEP: Compress
** 
*Step, name=Compress, nlgeom=YES, inc=1000000
*Coupled Temperature-displacement, creep=none, deltmx=1e+13, stabilize=0.0002, allsdtol=0.05, continue=NO
1e-14, 5e+12, 1e-14, 5e+12
** 
** BOUNDARY CONDITIONS
** 
** Name: CompressLeftBoundary Type: Velocity/Angular velocity
*Boundary, amplitude=Vx, type=VELOCITY
LeftBoundary, 1, 1, 1.75e-09
** Name: CompressRightBoundary Type: Velocity/Angular velocity
*Boundary, amplitude=Vx, type=VELOCITY
RightBoundary, 1, 1, -1.75e-09
** Name: ExtendTopBoundary Type: Velocity/Angular velocity
*Boundary, amplitude=Vy, type=VELOCITY
Top_Surface, 2, 2, 2e-09
** 
** LOADS
** 
** Name: AdiabaticSides   Type: Surface heat flux
*Dsflux, amplitude=CompressionAmp
LeftRightTopBottom, S, 1e-99
** Name: ZeroTraction   Type: Surface traction
*Dsload, amplitude=CompressionAmp
LeftRightTopBottom, TRSHR, 1e-99, 0.868243, 0.496139, 0.
** 
** CONTROLS
** 
*Controls, reset
*Controls, parameters=time incrementation
, , , , , , , 52, , , 
** 
** OUTPUT REQUESTS
** 
*Restart, write, frequency=0
** 
** FIELD OUTPUT: Compress
** 
*Output, field
*Node Output
NT, U, V
*Element Output, directions=YES
BF, E, EE, ER, ESDV, GRAV, IE, LE, MISES, MISESONLY, NE, P, S, SDV, TEMP
*Contact Output
CSTRESSERI, 
*Radiation Output
FTEMP, 
** 
** HISTORY OUTPUT: InclusionElement
** 
*Output, history
*Element Output, elset=InclusionElement
E11, E12, E13, E22, E23, E33, EP, INV3, PRESS, S11, S12, S13, S22, S23, S33, SDV
SP, TEMP, TRESC
** 
** HISTORY OUTPUT: MatrixElement
** 
*Element Output, elset=MatrixElement
E11, E12, E13, E22, E23, E33, EP, INV3, PRESS, S11, S12, S13, S22, S23, S33, SDV
SP, TEMP, TRESC
** 
** HISTORY OUTPUT: NearInclusionElement
** 
*Element Output, elset=NearWeakZone
E11, E12, E13, E22, E23, E33, EP, INV3, PRESS, S11, S12, S13, S22, S23, S33, SDV
SP, TEMP, TRESC
** 
** HISTORY OUTPUT: ShearBandElement
** 
*Element Output, elset=ShearBandElement
E11, E12, E13, E22, E23, E33, EP, INV3, PRESS, S11, S12, S13, S22, S23, S33, SDV
SP, TEMP, TRESC
*End Step
