*Heading
** Job name: 000_Duretz_et_al_2014_R_EQ_3km_200by100cells_VP Model name: 000_Duretz_et_al_2014_R_EQ_3km_200by100cells_VP
** Generated by: Abaqus/CAE 2019
*Preprint, echo=NO, model=NO, history=NO, contact=NO
**
** PARTS
**
*Part, name=Planar
*End Part
**  
**
** ASSEMBLY
**
*Assembly, name=Assembly
**  
*Instance, name=Planar-1, part=Planar
*Node
      1,  -136804.938,      896600.
      2,   -142805.25,      896600.
      3,     -104800.,      896600.
      4,     -104800.,      936600.
      5,     -174800.,      936600.
      6,     -174800.,      896600.
      7,  -136855.594,   897116.875
      8,  -136994.625,   897617.188
      9,  -137217.844,   898086.125
     10,  -137518.594,     898509.5
     11,  -137887.828,   898874.688
     12,    -138314.5,   899170.688
     13,  -138785.844,    899388.75
     14,  -139287.719,   899522.188
     15,  -139805.094,   899567.188
     16,  -140322.469,   899522.188
     17,  -140824.328,    899388.75
     18,  -141295.672,   899170.688
     19,  -141722.359,   898874.688
     20,  -142091.594,     898509.5
** ... 10457 like lines cut
*Element, type=CPE3T
  1, 623,  25,  26
  2, 628,  33,  34
  3, 624,  26, 621
  4,  23,   2,  24
  5, 638, 624, 654
  6, 629,  28,  29
  7,  28, 629, 621
  8, 654, 629, 632
  9, 627,  30,  31
 10, 625,  32, 628
 11, 639, 623, 624
 12, 651, 631, 628
 13, 633, 650, 626
 14, 646,  12, 636
 15, 620,  38,  39
 16, 620,   7,   8
 17, 620,  39,   7
 18,  39,   1,   7
 19, 639,  23, 623
 20, 655, 643, 649
** ... 20330 like lines cut
*Nset, nset=Inclusion
   1,   2,   7,   8,   9,  10,  11,  12,  13,  14,  15,  16,  17,  18,  19,  20
  21,  22,  23,  24,  25,  26,  27,  28,  29,  30,  31,  32,  33,  34,  35,  36
  37,  38,  39, 620, 621, 622, 623, 624, 625, 626, 627, 628, 629, 630, 631, 632
 633, 634, 635, 636, 637, 638, 639, 640, 641, 642, 643, 644, 645, 646, 647, 648
 649, 650, 651, 652, 653, 654, 655, 656, 657, 658, 659
*Elset, elset=Inclusion, generate
   1,  113,    1
*Nset, nset=EntireGeometry, generate
     1,  10477,      1
*Elset, elset=EntireGeometry, generate
     1,  20350,      1
*Nset, nset=Matrix
     1,     2,     3,     4,     5,     6,     7,     8,     9,    10,    11,    12,    13,    14,    15,    16
    17,    18,    19,    20,    21,    22,    23,    40,    41,    42,    43,    44,    45,    46,    47,    48
    49,    50,    51,    52,    53,    54,    55,    56,    57,    58,    59,    60,    61,    62,    63,    64
    65,    66,    67,    68,    69,    70,    71,    72,    73,    74,    75,    76,    77,    78,    79,    80
    81,    82,    83,    84,    85,    86,    87,    88,    89,    90,    91,    92,    93,    94,    95,    96
    97,    98,    99,   100,   101,   102,   103,   104,   105,   106,   107,   108,   109,   110,   111,   112
   113,   114,   115,   116,   117,   118,   119,   120,   121,   122,   123,   124,   125,   126,   127,   128
   129,   130,   131,   132,   133,   134,   135,   136,   137,   138,   139,   140,   141,   142,   143,   144
   145,   146,   147,   148,   149,   150,   151,   152,   153,   154,   155,   156,   157,   158,   159,   160
   161,   162,   163,   164,   165,   166,   167,   168,   169,   170,   171,   172,   173,   174,   175,   176
   177,   178,   179,   180,   181,   182,   183,   184,   185,   186,   187,   188,   189,   190,   191,   192
   193,   194,   195,   196,   197,   198,   199,   200,   201,   202,   203,   204,   205,   206,   207,   208
   209,   210,   211,   212,   213,   214,   215,   216,   217,   218,   219,   220,   221,   222,   223,   224
   225,   226,   227,   228,   229,   230,   231,   232,   233,   234,   235,   236,   237,   238,   239,   240
   241,   242,   243,   244,   245,   246,   247,   248,   249,   250,   251,   252,   253,   254,   255,   256
   257,   258,   259,   260,   261,   262,   263,   264,   265,   266,   267,   268,   269,   270,   271,   272
   273,   274,   275,   276,   277,   278,   279,   280,   281,   282,   283,   284,   285,   286,   287,   288
   289,   290,   291,   292,   293,   294,   295,   296,   297,   298,   299,   300,   301,   302,   303,   304
   305,   306,   307,   308,   309,   310,   311,   312,   313,   314,   315,   316,   317,   318,   319,   320
   321,   322,   323,   324,   325,   326,   327,   328,   329,   330,   331,   332,   333,   334,   335,   336
** ... 632 like lines cut
*Elset, elset=Matrix, generate
   114,  20350,      1
** Section: Inclusion
*Solid Section, elset=Inclusion, material=Inclusion
,
** Section: Matrix
*Solid Section, elset=Matrix, material=Matrix
,
*End Instance
**  
*Elset, elset=AllElements, instance=Planar-1, generate
     1,  20350,      1
*Nset, nset=AllNodes, instance=Planar-1, generate
     1,  10477,      1
*Nset, nset=BottomBoundary, instance=Planar-1
   1,   2,   3,   6,  24,  25,  26,  27,  28,  29,  30,  31,  32,  33,  34,  35
  36,  37,  38,  39,  40,  41,  42,  43,  44,  45,  46,  47,  48,  49,  50,  51
  52,  53,  54,  55,  56,  57,  58,  59,  60,  61,  62,  63,  64,  65,  66,  67
  68,  69,  70,  71,  72,  73,  74,  75,  76,  77,  78,  79,  80,  81,  82,  83
  84,  85,  86,  87,  88,  89,  90,  91,  92,  93,  94,  95,  96,  97,  98,  99
 100, 101, 102, 103, 104, 105, 106, 107, 108, 109, 110, 111, 112, 113, 114, 115
 116, 117, 118, 119, 120, 121, 122, 123, 124, 125, 126, 127, 128, 129, 130, 529
 530, 531, 532, 533, 534, 535, 536, 537, 538, 539, 540, 541, 542, 543, 544, 545
 546, 547, 548, 549, 550, 551, 552, 553, 554, 555, 556, 557, 558, 559, 560, 561
 562, 563, 564, 565, 566, 567, 568, 569, 570, 571, 572, 573, 574, 575, 576, 577
 578, 579, 580, 581, 582, 583, 584, 585, 586, 587, 588, 589, 590, 591, 592, 593
 594, 595, 596, 597, 598, 599, 600, 601, 602, 603, 604, 605, 606, 607, 608, 609
 610, 611, 612, 613, 614, 615, 616, 617, 618, 619
*Elset, elset=BottomBoundary, instance=Planar-1
    1,    2,    4,    6,    9,   15,   18,   23,   24,   27,   29,   30,   32,   33,   36,   39
   41,  165,  317,  319,  384,  385,  388,  392,  398,  399,  400, 1050, 1461, 1545, 1579, 1594
 1604, 1620, 1637, 1647, 1659, 1684, 1702, 1703, 1733, 1767, 1772, 1785, 1788, 1790, 2540, 2543
 2553, 2554, 5130, 5133, 5135, 5136, 5137, 5139, 5140, 5142, 5143, 5144, 5147, 5149, 5158, 5274
 5316, 5317, 5319, 5320, 5322, 5323, 5324, 5325, 5328, 5333, 5336, 5338, 5339, 5340, 5341, 5342
 5345, 5351, 5352, 5353, 5355, 5356, 5358, 5359, 5360, 5364, 5367, 5372, 5377, 5382, 5386, 5387
 5388, 5391, 5395, 5397, 5399, 5401, 5403, 5404, 5405, 5407, 5408, 5411, 5412, 5415, 5416, 5419
 5421, 5427, 5428, 5431, 5433, 5434, 5439, 5440, 5444, 5448, 5450, 5452, 5453, 5454, 5456, 5457
 5460, 5461, 5465, 5466, 5468, 5470, 5471, 5475, 5481, 5482, 5485, 5486, 5487, 5488, 5489, 5490
 5492, 5494, 5499, 5500, 5502, 5503, 5505, 5509, 5511, 5512, 5515, 5521, 5525, 5526, 5527, 5530
 5532, 5533, 5534, 5536, 5538, 5539, 5540, 5541, 5543, 5544, 5545, 5546, 5547, 5548, 5549, 5552
 5553, 5556, 5559, 5562, 5564, 5565, 5566, 5568, 5569, 5572, 5575, 5578, 5581, 5585, 5588, 5589
 5592, 5594, 5595, 5596, 5598, 5600, 5601, 5603, 6193
*Nset, nset=EntireGeometry, instance=Planar-1, generate
     1,  10477,      1
*Elset, elset=EntireGeometry, instance=Planar-1, generate
     1,  20350,      1
*Nset, nset=Inclusion, instance=Planar-1
   1,   2,   7,   8,   9,  10,  11,  12,  13,  14,  15,  16,  17,  18,  19,  20
  21,  22,  23,  24,  25,  26,  27,  28,  29,  30,  31,  32,  33,  34,  35,  36
  37,  38,  39, 620, 621, 622, 623, 624, 625, 626, 627, 628, 629, 630, 631, 632
 633, 634, 635, 636, 637, 638, 639, 640, 641, 642, 643, 644, 645, 646, 647, 648
 649, 650, 651, 652, 653, 654, 655, 656, 657, 658, 659
*Elset, elset=Inclusion, instance=Planar-1, generate
   1,  113,    1
*Elset, elset=InclusionElement, instance=Planar-1
 100,
*Nset, nset=LeftBoundary, instance=Planar-1
   5,   6, 430, 431, 432, 433, 434, 435, 436, 437, 438, 439, 440, 441, 442, 443
 444, 445, 446, 447, 448, 449, 450, 451, 452, 453, 454, 455, 456, 457, 458, 459
 460, 461, 462, 463, 464, 465, 466, 467, 468, 469, 470, 471, 472, 473, 474, 475
 476, 477, 478, 479, 480, 481, 482, 483, 484, 485, 486, 487, 488, 489, 490, 491
 492, 493, 494, 495, 496, 497, 498, 499, 500, 501, 502, 503, 504, 505, 506, 507
 508, 509, 510, 511, 512, 513, 514, 515, 516, 517, 518, 519, 520, 521, 522, 523
 524, 525, 526, 527, 528
*Elset, elset=LeftBoundary, instance=Planar-1
 1052, 1134, 1161, 1188, 1204, 1364, 1388, 1414, 1431, 1546, 1580, 1595, 1606, 1622, 1639, 1704
 1716, 1740, 1747, 1755, 1761, 5198, 5274, 5275, 5280, 5281, 5282, 5283, 5284, 5286, 5291, 5292
 5293, 5294, 5299, 5300, 5301, 5302, 5303, 5305, 5306, 5309, 5310, 5311, 5312, 5313, 5866, 5917
 5921, 5923, 5924, 5925, 5926, 5928, 5930, 5932, 5933, 5934, 5935, 5936, 5938, 5939, 5940, 5943
 5944, 5945, 5946, 5947, 5950, 5954, 5957, 5958, 5959, 5960, 5961, 6021, 6023, 6024, 6025, 6027
 6034, 6035, 6037, 6038, 6039, 6040, 6047, 6048, 6049, 6051, 6052, 6053, 6054, 6061, 6062, 6063
 6064, 6065, 6066, 6068
*Elset, elset=MatrixElement, instance=Planar-1
 19235,
*Elset, elset=NearWeakZone, instance=Planar-1
 14356,
*Nset, nset=RightBoundary, instance=Planar-1
   3,   4, 131, 132, 133, 134, 135, 136, 137, 138, 139, 140, 141, 142, 143, 144
 145, 146, 147, 148, 149, 150, 151, 152, 153, 154, 155, 156, 157, 158, 159, 160
 161, 162, 163, 164, 165, 166, 167, 168, 169, 170, 171, 172, 173, 174, 175, 176
 177, 178, 179, 180, 181, 182, 183, 184, 185, 186, 187, 188, 189, 190, 191, 192
 193, 194, 195, 196, 197, 198, 199, 200, 201, 202, 203, 204, 205, 206, 207, 208
 209, 210, 211, 212, 213, 214, 215, 216, 217, 218, 219, 220, 221, 222, 223, 224
 225, 226, 227, 228, 229
*Elset, elset=RightBoundary, instance=Planar-1
  194,  196,  250,  280,  301,  408,  541,  587,  609,  625,  642,  661,  782,  815,  833,  845
  859,  873,  935,  947,  971,  982,  992,  999, 5158, 5159, 5165, 5166, 5167, 5168, 5169, 5171
 5176, 5177, 5178, 5179, 5185, 5186, 5187, 5188, 5193, 5194, 5195, 5196, 5871, 5872, 5874, 5875
 5876, 5877, 5878, 5880, 5881, 5882, 5885, 5886, 5887, 5888, 5889, 5891, 5892, 5893, 5896, 5897
 5898, 5899, 5900, 5903, 5907, 5910, 5911, 5912, 5913, 5914, 5916, 5965, 5966, 5968, 5969, 5971
 5978, 5979, 5981, 5982, 5983, 5984, 5991, 5992, 5993, 5995, 5996, 5997, 5998, 6005, 6006, 6007
 6009, 6010, 6011, 6012
*Elset, elset=ShearBandElement, instance=Planar-1
 9317,
*Nset, nset=Top_Surface, instance=Planar-1
   4,   5, 230, 231, 232, 233, 234, 235, 236, 237, 238, 239, 240, 241, 242, 243
 244, 245, 246, 247, 248, 249, 250, 251, 252, 253, 254, 255, 256, 257, 258, 259
 260, 261, 262, 263, 264, 265, 266, 267, 268, 269, 270, 271, 272, 273, 274, 275
 276, 277, 278, 279, 280, 281, 282, 283, 284, 285, 286, 287, 288, 289, 290, 291
 292, 293, 294, 295, 296, 297, 298, 299, 300, 301, 302, 303, 304, 305, 306, 307
 308, 309, 310, 311, 312, 313, 314, 315, 316, 317, 318, 319, 320, 321, 322, 323
 324, 325, 326, 327, 328, 329, 330, 331, 332, 333, 334, 335, 336, 337, 338, 339
 340, 341, 342, 343, 344, 345, 346, 347, 348, 349, 350, 351, 352, 353, 354, 355
 356, 357, 358, 359, 360, 361, 362, 363, 364, 365, 366, 367, 368, 369, 370, 371
 372, 373, 374, 375, 376, 377, 378, 379, 380, 381, 382, 383, 384, 385, 386, 387
 388, 389, 390, 391, 392, 393, 394, 395, 396, 397, 398, 399, 400, 401, 402, 403
 404, 405, 406, 407, 408, 409, 410, 411, 412, 413, 414, 415, 416, 417, 418, 419
 420, 421, 422, 423, 424, 425, 426, 427, 428, 429
*Elset, elset=Top_Surface, instance=Planar-1
  166,  540,  623,  694,  843,  857,  893,  980, 1007, 1023, 1092, 1097, 1107, 1111, 1114, 1115
 1116, 1117, 1118, 1119, 1120, 1121, 1122, 1124, 1126, 1127, 1128, 1129, 1130, 1131, 1132, 1133
 5123, 5159, 5198, 5200, 5201, 5202, 5204, 5205, 5206, 5210, 5213, 5214, 5215, 5216, 5218, 5220
 5221, 5223, 5224, 5225, 5227, 5228, 5229, 5231, 5234, 5237, 5239, 5240, 5242, 5244, 5246, 5247
 5249, 5250, 5251, 5253, 5254, 5255, 5257, 5261, 5264, 5266, 5267, 5269, 5271, 5273, 5608, 5609
 5611, 5613, 5614, 5616, 5618, 5621, 5623, 5625, 5628, 5629, 5630, 5633, 5634, 5639, 5641, 5642
 5644, 5646, 5647, 5649, 5652, 5655, 5657, 5659, 5661, 5663, 5665, 5666, 5672, 5675, 5681, 5684
 5689, 5699, 5701, 5702, 5708, 5712, 5714, 5716, 5719, 5720, 5721, 5723, 5725, 5727, 5729, 5730
 5731, 5733, 5734, 5735, 5736, 5738, 5740, 5742, 5746, 5748, 5750, 5751, 5754, 5755, 5757, 5760
 5762, 5764, 5767, 5768, 5770, 5772, 5774, 5775, 5777, 5778, 5779, 5781, 5783, 5785, 5787, 5788
 5789, 5791, 5793, 5794, 5796, 5798, 5799, 5803, 5804, 5806, 5807, 5809, 5813, 5815, 5817, 5820
 5821, 5822, 5824, 5826, 5828, 5830, 5832, 5834, 5835, 5837, 5839, 5841, 5843, 5844, 5845, 5847
 5849, 5850, 5852, 5854, 5855, 5858, 5860, 5862, 6209
*Elset, elset=_BottomSurface_S2, internal, instance=Planar-1
    1,    2,    4,    6,    9,   15,   23,   24,   27,   30,   32,   33,   36,   39,   41,  165
  317,  319,  384,  385,  388,  398,  399,  400, 1050, 1461, 1545, 1579, 1594, 1604, 1620, 1637
 1647, 1659, 1703, 1733, 1767, 1772, 1785, 1788, 1790, 2540, 2543, 2553, 2554, 5130, 5133, 5135
 5136, 5137, 5139, 5140, 5142, 5143, 5144, 5149, 5274, 5316, 5317, 5319, 5320, 5322, 5323, 5324
 5325, 5328, 5336, 5338, 5339, 5341, 5345, 5351, 5352, 5353, 5355, 5356, 5358, 5359, 5360, 5364
 5367, 5377, 5382, 5386, 5387, 5388, 5391, 5395, 5397, 5399, 5401, 5403, 5405, 5407, 5408, 5411
 5412, 5415, 5416, 5419, 5421, 5427, 5428, 5431, 5434, 5439, 5444, 5448, 5450, 5452, 5453, 5454
 5460, 5461, 5465, 5466, 5468, 5470, 5471, 5475, 5481, 5482, 5485, 5486, 5487, 5488, 5489, 5490
 5492, 5494, 5499, 5500, 5502, 5503, 5505, 5509, 5515, 5521, 5525, 5526, 5532, 5533, 5534, 5536
 5538, 5539, 5540, 5541, 5543, 5544, 5545, 5546, 5547, 5548, 5549, 5552, 5553, 5556, 5559, 5562
 5564, 5565, 5566, 5569, 5572, 5581, 5585, 5588, 5589, 5592, 5594, 5595, 5596, 5598, 5600, 5601
 5603,
*Elset, elset=_BottomSurface_S1, internal, instance=Planar-1
   18, 5158, 5340, 5527
*Elset, elset=_BottomSurface_S3, internal, instance=Planar-1
   29,  392, 1684, 1702, 5147, 5333, 5342, 5372, 5404, 5433, 5440, 5456, 5457, 5511, 5512, 5530
 5568, 5575, 5578, 6193
*Surface, type=ELEMENT, name=BottomSurface
_BottomSurface_S2, S2
_BottomSurface_S1, S1
_BottomSurface_S3, S3
*Elset, elset=_LeftRightTopBottom_S2, internal, instance=Planar-1
    1,    2,    4,    6,    9,   15,   23,   24,   27,   30,   32,   33,   36,   39,   41,  165
  166,  194,  196,  250,  280,  301,  317,  319,  384,  385,  388,  398,  399,  400,  540,  609
  623,  625,  642,  661,  694,  833,  845,  857,  859,  873,  893,  971,  980,  982,  992,  999
 1007, 1023, 1050, 1052, 1092, 1114, 1115, 1116, 1117, 1118, 1119, 1120, 1121, 1122, 1124, 1126
 1127, 1128, 1129, 1130, 1131, 1132, 1133, 1134, 1161, 1188, 1204, 1364, 1388, 1414, 1431, 1461
 1545, 1579, 1594, 1595, 1604, 1606, 1620, 1622, 1637, 1639, 1647, 1659, 1703, 1733, 1740, 1747
 1755, 1761, 1767, 1772, 1785, 1788, 1790, 2540, 2543, 2553, 2554, 5123, 5130, 5133, 5135, 5136
 5137, 5139, 5140, 5142, 5143, 5144, 5149, 5158, 5159, 5165, 5166, 5167, 5168, 5169, 5171, 5176
 5177, 5178, 5179, 5185, 5186, 5187, 5188, 5193, 5194, 5195, 5196, 5198, 5200, 5202, 5204, 5205
 5206, 5210, 5213, 5214, 5215, 5216, 5218, 5220, 5221, 5223, 5225, 5227, 5228, 5229, 5231, 5234
 5237, 5239, 5240, 5242, 5244, 5246, 5247, 5249, 5251, 5253, 5254, 5255, 5257, 5261, 5264, 5266
 5267, 5269, 5271, 5273, 5274, 5280, 5281, 5282, 5283, 5284, 5286, 5291, 5292, 5293, 5294, 5299
 5300, 5301, 5302, 5303, 5306, 5309, 5310, 5311, 5312, 5313, 5316, 5317, 5319, 5320, 5322, 5323
 5324, 5325, 5328, 5336, 5338, 5339, 5341, 5345, 5351, 5352, 5353, 5355, 5356, 5358, 5359, 5360
 5364, 5367, 5377, 5382, 5386, 5387, 5388, 5391, 5395, 5397, 5399, 5401, 5403, 5405, 5407, 5408
 5411, 5412, 5415, 5416, 5419, 5421, 5427, 5428, 5431, 5434, 5439, 5444, 5448, 5450, 5452, 5453
 5454, 5460, 5461, 5465, 5466, 5468, 5470, 5471, 5475, 5481, 5482, 5485, 5486, 5487, 5488, 5489
 5490, 5492, 5494, 5499, 5500, 5502, 5503, 5505, 5509, 5515, 5521, 5525, 5526, 5532, 5533, 5534
 5536, 5538, 5539, 5540, 5541, 5543, 5544, 5545, 5546, 5547, 5548, 5549, 5552, 5553, 5556, 5559
 5562, 5564, 5565, 5566, 5569, 5572, 5581, 5585, 5588, 5589, 5592, 5594, 5595, 5596, 5598, 5600
** ... 13 like lines cut
*Elset, elset=_LeftRightTopBottom_S1, internal, instance=Planar-1
   18,  541,  782,  947, 1546, 1716, 5158, 5159, 5198, 5201, 5224, 5250, 5274, 5305, 5340, 5527
 5663, 5675, 5684, 5699, 5803, 5806, 5821, 6064
*Elset, elset=_LeftRightTopBottom_S3, internal, instance=Planar-1
   29,  392,  408,  587,  815,  843,  935, 1097, 1107, 1111, 1580, 1684, 1702, 1704, 5147, 5275
 5333, 5342, 5372, 5404, 5433, 5440, 5456, 5457, 5511, 5512, 5530, 5568, 5575, 5578, 5616, 5625
 5629, 5634, 5649, 5659, 5666, 5672, 5689, 5702, 5730, 5751, 5772, 5778, 5788, 5794, 5826, 5834
 5844, 5850, 5858, 5862, 5881, 5892, 5939, 5979, 6035, 6193, 6209
*Surface, type=ELEMENT, name=LeftRightTopBottom
_LeftRightTopBottom_S2, S2
_LeftRightTopBottom_S1, S1
_LeftRightTopBottom_S3, S3
*Elset, elset=_LeftSurface_S2, internal, instance=Planar-1
 1052, 1134, 1161, 1188, 1204, 1364, 1388, 1414, 1431, 1595, 1606, 1622, 1639, 1740, 1747, 1755
 1761, 5198, 5280, 5281, 5282, 5283, 5284, 5286, 5291, 5292, 5293, 5294, 5299, 5300, 5301, 5302
 5303, 5306, 5309, 5310, 5311, 5312, 5313, 5866, 5917, 5921, 5923, 5924, 5925, 5926, 5928, 5930
 5932, 5933, 5934, 5935, 5936, 5938, 5940, 5943, 5944, 5945, 5946, 5947, 5950, 5954, 5957, 5958
 5959, 5960, 5961, 6021, 6023, 6024, 6025, 6027, 6034, 6037, 6038, 6039, 6040, 6047, 6048, 6049
 6051, 6052, 6053, 6054, 6061, 6062, 6063, 6065, 6066, 6068
*Elset, elset=_LeftSurface_S1, internal, instance=Planar-1
 1546, 1716, 5274, 5305, 6064
*Elset, elset=_LeftSurface_S3, internal, instance=Planar-1
 1580, 1704, 5275, 5939, 6035
*Surface, type=ELEMENT, name=LeftSurface
_LeftSurface_S2, S2
_LeftSurface_S1, S1
_LeftSurface_S3, S3
*Elset, elset=_LeftandRight_S2, internal, instance=Planar-1
  194,  196,  250,  280,  301,  609,  625,  642,  661,  833,  845,  859,  873,  971,  982,  992
  999, 1052, 1134, 1161, 1188, 1204, 1364, 1388, 1414, 1431, 1595, 1606, 1622, 1639, 1740, 1747
 1755, 1761, 5158, 5165, 5166, 5167, 5168, 5169, 5171, 5176, 5177, 5178, 5179, 5185, 5186, 5187
 5188, 5193, 5194, 5195, 5196, 5198, 5280, 5281, 5282, 5283, 5284, 5286, 5291, 5292, 5293, 5294
 5299, 5300, 5301, 5302, 5303, 5306, 5309, 5310, 5311, 5312, 5313, 5866, 5871, 5872, 5874, 5875
 5876, 5877, 5878, 5880, 5882, 5885, 5886, 5887, 5888, 5889, 5891, 5893, 5896, 5897, 5898, 5899
 5900, 5903, 5907, 5910, 5911, 5912, 5913, 5914, 5916, 5917, 5921, 5923, 5924, 5925, 5926, 5928
 5930, 5932, 5933, 5934, 5935, 5936, 5938, 5940, 5943, 5944, 5945, 5946, 5947, 5950, 5954, 5957
 5958, 5959, 5960, 5961, 5965, 5966, 5968, 5969, 5971, 5978, 5981, 5982, 5983, 5984, 5991, 5992
 5993, 5995, 5996, 5997, 5998, 6005, 6006, 6007, 6009, 6010, 6011, 6012, 6021, 6023, 6024, 6025
 6027, 6034, 6037, 6038, 6039, 6040, 6047, 6048, 6049, 6051, 6052, 6053, 6054, 6061, 6062, 6063
 6065, 6066, 6068
*Elset, elset=_LeftandRight_S3, internal, instance=Planar-1
  408,  587,  815,  935, 1580, 1704, 5275, 5881, 5892, 5939, 5979, 6035
*Elset, elset=_LeftandRight_S1, internal, instance=Planar-1
  541,  782,  947, 1546, 1716, 5159, 5274, 5305, 6064
*Surface, type=ELEMENT, name=LeftandRight
_LeftandRight_S2, S2
_LeftandRight_S3, S3
_LeftandRight_S1, S1
*Elset, elset=_RightSurface_S2, internal, instance=Planar-1
  194,  196,  250,  280,  301,  609,  625,  642,  661,  833,  845,  859,  873,  971,  982,  992
  999, 5158, 5165, 5166, 5167, 5168, 5169, 5171, 5176, 5177, 5178, 5179, 5185, 5186, 5187, 5188
 5193, 5194, 5195, 5196, 5871, 5872, 5874, 5875, 5876, 5877, 5878, 5880, 5882, 5885, 5886, 5887
 5888, 5889, 5891, 5893, 5896, 5897, 5898, 5899, 5900, 5903, 5907, 5910, 5911, 5912, 5913, 5914
 5916, 5965, 5966, 5968, 5969, 5971, 5978, 5981, 5982, 5983, 5984, 5991, 5992, 5993, 5995, 5996
 5997, 5998, 6005, 6006, 6007, 6009, 6010, 6011, 6012
*Elset, elset=_RightSurface_S3, internal, instance=Planar-1
  408,  587,  815,  935, 5881, 5892, 5979
*Elset, elset=_RightSurface_S1, internal, instance=Planar-1
  541,  782,  947, 5159
*Surface, type=ELEMENT, name=RightSurface
_RightSurface_S2, S2
_RightSurface_S3, S3
_RightSurface_S1, S1
*Elset, elset=_TopSurface_S2, internal, instance=Planar-1
  166,  540,  623,  694,  857,  893,  980, 1007, 1023, 1092, 1114, 1115, 1116, 1117, 1118, 1119
 1120, 1121, 1122, 1124, 1126, 1127, 1128, 1129, 1130, 1131, 1132, 1133, 5123, 5159, 5200, 5202
 5204, 5205, 5206, 5210, 5213, 5214, 5215, 5216, 5218, 5220, 5221, 5223, 5225, 5227, 5228, 5229
 5231, 5234, 5237, 5239, 5240, 5242, 5244, 5246, 5247, 5249, 5251, 5253, 5254, 5255, 5257, 5261
 5264, 5266, 5267, 5269, 5271, 5273, 5608, 5609, 5611, 5613, 5614, 5618, 5621, 5623, 5628, 5630
 5633, 5639, 5641, 5642, 5644, 5646, 5647, 5652, 5655, 5657, 5661, 5665, 5681, 5701, 5708, 5712
 5714, 5716, 5719, 5720, 5721, 5723, 5725, 5727, 5729, 5731, 5733, 5734, 5735, 5736, 5738, 5740
 5742, 5746, 5748, 5750, 5754, 5755, 5757, 5760, 5762, 5764, 5767, 5768, 5770, 5774, 5775, 5777
 5779, 5781, 5783, 5785, 5787, 5789, 5791, 5793, 5796, 5798, 5799, 5804, 5807, 5809, 5813, 5815
 5817, 5820, 5822, 5824, 5828, 5830, 5832, 5835, 5837, 5839, 5841, 5843, 5845, 5847, 5849, 5852
 5854, 5855, 5860
*Elset, elset=_TopSurface_S3, internal, instance=Planar-1
  843, 1097, 1107, 1111, 5616, 5625, 5629, 5634, 5649, 5659, 5666, 5672, 5689, 5702, 5730, 5751
 5772, 5778, 5788, 5794, 5826, 5834, 5844, 5850, 5858, 5862, 6209
*Elset, elset=_TopSurface_S1, internal, instance=Planar-1
 5198, 5201, 5224, 5250, 5663, 5675, 5684, 5699, 5803, 5806, 5821
*Surface, type=ELEMENT, name=TopSurface
_TopSurface_S2, S2
_TopSurface_S3, S3
_TopSurface_S1, S1
*End Assembly
*Amplitude, name=CompressionAmp
             0.,              1.,  5000000000000.,              1.
*Amplitude, name=GravityAmp, time=TOTAL TIME
             0.,              1., 100000000000000.,              1.
*Amplitude, name=Vx, time=TOTAL TIME
             0.,              1.,  5000000000000.,            0.75
*Amplitude, name=Vy
             0.,              1.,  5000000000000.,            1.25
** 
** 
** MATERIALS
** 
*Material, name=Inclusion
*Density
2700.,
*Depvar
     28,
*User Material, constants=18, type=MECHANICAL
 7.5e+10,    0.25, 100000.,      0.,      1.,      0.,      0.,   2700.
   1050.,      0.,    8.31,   1e-20,   1e+15,     10.,    273., 3.5e-05
   0.005,   0.035
*User Material, constants=3, type=THERMAL
 2.5,1050.,2700.
*Material, name=Matrix
*Density
2700.,
*Depvar
     28,
*User Material, constants=18, type=MECHANICAL
 7.5e+10,       0.25,      5e+07,         0.,        3.3,        30.,        30.,      2700.
      1050.,    186500.,       8.31, 3.1623e-26,      1e+15,        10.,       273.,    3.5e-05
      0.005,      0.035
*User Material, constants=3, type=THERMAL
 2.5,1050.,2700.
** 
** BOUNDARY CONDITIONS
** 
** Name: FixedBottomBoundary Type: Velocity/Angular velocity
*Boundary, type=VELOCITY
BottomBoundary, 2, 2
** 
** PREDEFINED FIELDS
** 
** Name: TemperatureGradient   Type: Temperature
*Initial Conditions, type=TEMPERATURE
Planar-1.EntireGeometry, 473.
** ----------------------------------------------------------------
** 
** STEP: Compress
** 
*Step, name=Compress, nlgeom=YES, inc=1000000
*Coupled Temperature-displacement, creep=none, deltmx=1e+13, stabilize=0.0002, allsdtol=0.05, continue=NO
1e-14, 4e+12, 1e-14, 4e+12
** 
** BOUNDARY CONDITIONS
** 
** Name: CompressLeftBoundary Type: Velocity/Angular velocity
*Boundary, amplitude=Vx, type=VELOCITY
LeftBoundary, 1, 1, 1.75e-09
** Name: CompressRightBoundary Type: Velocity/Angular velocity
*Boundary, amplitude=Vx, type=VELOCITY
RightBoundary, 1, 1, -1.75e-09
** Name: ExtendTopBoundary Type: Velocity/Angular velocity
*Boundary, amplitude=Vy, type=VELOCITY
Top_Surface, 2, 2, 2e-09
** 
** LOADS
** 
** Name: AdiabaticSides   Type: Surface heat flux
*Dsflux, amplitude=CompressionAmp
LeftRightTopBottom, S, 1e-99
** Name: ZeroTraction   Type: Surface traction
*Dsload, amplitude=CompressionAmp
LeftRightTopBottom, TRSHR, 1e-99, 0.868243, 0.496139, 0.
** 
** CONTROLS
** 
*Controls, reset
*Controls, parameters=time incrementation
, , , , , , , 52, , , 
** 
** OUTPUT REQUESTS
** 
*Restart, write, frequency=0
** 
** FIELD OUTPUT: Compress
** 
*Output, field
*Node Output
NT, U, V
*Element Output, directions=YES
BF, E, EE, ER, ESDV, GRAV, IE, LE, MISES, MISESONLY, NE, P, S, SDV, TEMP
*Radiation Output
FTEMP, 
*Contact Output
CSTRESSERI, 
** 
** HISTORY OUTPUT: InclusionElement
** 
*Output, history
*Element Output, elset=InclusionElement
E11, E12, E13, E22, E23, E33, EP, INV3, PRESS, S11, S12, S13, S22, S23, S33, SDV
SP, TEMP, TRESC
** 
** HISTORY OUTPUT: MatrixElement
** 
*Element Output, elset=MatrixElement
E11, E12, E13, E22, E23, E33, EP, INV3, PRESS, S11, S12, S13, S22, S23, S33, SDV
SP, TEMP, TRESC
** 
** HISTORY OUTPUT: NearInclusionElement
** 
*Element Output, elset=NearWeakZone
E11, E12, E13, E22, E23, E33, EP, INV3, PRESS, S11, S12, S13, S22, S23, S33, SDV
SP, TEMP, TRESC
** 
** HISTORY OUTPUT: ShearBandElement
** 
*Element Output, elset=ShearBandElement
E11, E12, E13, E22, E23, E33, EP, INV3, PRESS, S11, S12, S13, S22, S23, S33, SDV
SP, TEMP, TRESC
*End Step
