*Heading
** Job name: 000_Duretz_et_al_2021_12340elements_shear_heating_10deg_dil_longer Model name: 000_Duretz_et_al_2021_12340elements_shear_heating_10deg_dil_longer
** Generated by: Abaqus/CAE 2019
*Preprint, echo=NO, model=NO, history=NO, contact=NO
**
** PARTS
**
*Part, name=Planar
*End Part
**  
**
** ASSEMBLY
**
*Assembly, name=Assembly
**  
*Instance, name=Planar-1, part=Planar
*Node
      1,     -204800.,      896600.
      2,     -104800.,      896600.
      3,     -104800.,      926600.
      4,     -204800.,      926600.
      5,     -154800.,      909600.
      6,  -203973.547,      896600.
      7,  -203147.109,      896600.
      8,  -202320.656,      896600.
      9,  -201494.219,      896600.
     10,  -200667.766,      896600.
     11,  -199841.328,      896600.
     12,  -199014.875,      896600.
     13,  -198188.438,      896600.
     14,  -197361.984,      896600.
     15,  -196535.531,      896600.
     16,  -195709.094,      896600.
     17,  -194882.641,      896600.
     18,  -194056.203,      896600.
     19,   -193229.75,      896600.
     20,  -192403.312,      896600.
** ... 6333 like lines cut
*Element, type=CPE3T
    1, 1640,  365,    6
    2, 1659,  364, 1640
    3, 1660,  361, 1641
    4, 1773, 1642, 1751
    5, 1707,  355,  356
    6, 1661,  352, 1643
    7, 1662, 1645,  348
    8, 1725, 1710, 1645
    9, 1663,  343, 1646
   10, 1664, 1648,  339
   11, 1665, 1649,  336
   12, 1666,  333, 1650
   13, 1715,  330,  331
   14, 1717,  327,  328
   15, 1667,  324, 1652
   16, 1668, 1654,  320
   17, 1720,  318,  319
   18, 1669,  315, 1655
   19, 1670,  312, 1656
   20, 1723,  309,  310
** ... 12320 like lines cut
*Nset, nset=Matrix, generate
    1,  6339,     1
*Elset, elset=Matrix, generate
     1,  12298,      1
*Nset, nset=Inclusion
    5,  366,  367,  368,  369,  370,  371,  372,  373,  374,  375,  376,  377,  378,  379,  380
 6340, 6341, 6342, 6343, 6344, 6345, 6346, 6347, 6348, 6349, 6350, 6351, 6352, 6353
*Elset, elset=Inclusion, generate
 12299,  12340,      1
*Nset, nset=EntireGeometry, generate
    1,  6353,     1
*Elset, elset=EntireGeometry, generate
     1,  12340,      1
** Section: Matrix
*Solid Section, elset=Matrix, material=Matrix
,
** Section: Inclusion
*Solid Section, elset=Inclusion, material=Inclusion
,
*End Instance
**  
*Elset, elset=AllElements, instance=Planar-1, generate
     1,  12340,      1
*Nset, nset=AllNodes, instance=Planar-1, generate
    1,  6353,     1
*Nset, nset=BottomBoundary, instance=Planar-1
   1,   2,   6,   7,   8,   9,  10,  11,  12,  13,  14,  15,  16,  17,  18,  19
  20,  21,  22,  23,  24,  25,  26,  27,  28,  29,  30,  31,  32,  33,  34,  35
  36,  37,  38,  39,  40,  41,  42,  43,  44,  45,  46,  47,  48,  49,  50,  51
  52,  53,  54,  55,  56,  57,  58,  59,  60,  61,  62,  63,  64,  65,  66,  67
  68,  69,  70,  71,  72,  73,  74,  75,  76,  77,  78,  79,  80,  81,  82,  83
  84,  85,  86,  87,  88,  89,  90,  91,  92,  93,  94,  95,  96,  97,  98,  99
 100, 101, 102, 103, 104, 105, 106, 107, 108, 109, 110, 111, 112, 113, 114, 115
 116, 117, 118, 119, 120, 121, 122, 123, 124, 125
*Elset, elset=BottomBoundary, instance=Planar-1
   45,   67,   89,  111,  133,  177,  199,  221,  243,  265,  331,  353,  375,  397,  463,  485
  507,  551,  573,  595,  617,  639,  683,  701,  713,  725,  762,  784,  828,  850,  872,  894
  916,  960,  982, 1004, 1005, 1026, 1048, 1092, 1114, 1136, 1158, 1180, 1202, 1224, 1246, 1268
 1290, 1356, 1378, 1400, 2639, 2640, 2643, 2644, 2645, 2648, 2649, 2650, 2653, 2654, 2655, 2657
 2658, 2659, 2662, 2663, 2664, 2668, 2669, 2673, 2674, 2678, 2679, 2683, 2684, 2685, 2686, 2688
 2689, 2690, 2692, 2789, 3221, 4112, 4335, 4652, 5068, 5632, 6793, 6795, 6797, 6799, 6801, 6803
 6805, 6807, 6809, 6813, 6872, 6876, 6878, 6880, 7018, 7020, 7026, 7028, 7031, 7034, 7038, 7043
 7046, 7051, 7054, 7056, 7060, 7061, 7064, 7068, 7070
*Nset, nset=EntireGeometry, instance=Planar-1, generate
    1,  6353,     1
*Elset, elset=EntireGeometry, instance=Planar-1, generate
     1,  12340,      1
*Nset, nset=Inclusion, instance=Planar-1
    5,  366,  367,  368,  369,  370,  371,  372,  373,  374,  375,  376,  377,  378,  379,  380
 6340, 6341, 6342, 6343, 6344, 6345, 6346, 6347, 6348, 6349, 6350, 6351, 6352, 6353
*Elset, elset=Inclusion, instance=Planar-1, generate
 12299,  12340,      1
*Elset, elset=InclusionElement, instance=Planar-1
 12340,
*Nset, nset=LeftBoundary, instance=Planar-1
   1,   4, 306, 307, 308, 309, 310, 311, 312, 313, 314, 315, 316, 317, 318, 319
 320, 321, 322, 323, 324, 325, 326, 327, 328, 329, 330, 331, 332, 333, 334, 335
 336, 337, 338, 339, 340, 341, 342, 343, 344, 345, 346, 347, 348, 349, 350, 351
 352, 353, 354, 355, 356, 357, 358, 359, 360, 361, 362, 363, 364, 365
*Elset, elset=LeftBoundary, instance=Planar-1
    5,   13,   14,   17,   20, 1481, 1484, 2734, 2789, 2790, 2792, 2793, 2799, 2801, 2804, 2806
 2807, 2809, 2811, 2812, 2817, 2818, 2820, 2823, 2825, 2826, 2829, 2834, 2836, 2838, 2840, 2842
 2844, 2846, 2909, 2913, 2915, 2917, 2927, 2931, 2938, 2939, 2941, 2943, 2946, 2949, 2951, 2953
 2955, 2958, 2959, 3030, 3032, 3035, 3040, 3041, 3047, 3052, 3055, 3061, 3067
*Nset, nset=LeftandRight, instance=Planar-1
   1,   2,   3,   4, 126, 127, 128, 129, 130, 131, 132, 133, 134, 135, 136, 137
 138, 139, 140, 141, 142, 143, 144, 145, 146, 147, 148, 149, 150, 151, 152, 153
 154, 155, 156, 157, 158, 159, 160, 161, 162, 163, 164, 165, 166, 167, 168, 169
 170, 171, 172, 173, 174, 175, 176, 177, 178, 179, 180, 181, 182, 183, 184, 185
 306, 307, 308, 309, 310, 311, 312, 313, 314, 315, 316, 317, 318, 319, 320, 321
 322, 323, 324, 325, 326, 327, 328, 329, 330, 331, 332, 333, 334, 335, 336, 337
 338, 339, 340, 341, 342, 343, 344, 345, 346, 347, 348, 349, 350, 351, 352, 353
 354, 355, 356, 357, 358, 359, 360, 361, 362, 363, 364, 365
*Elset, elset=LeftandRight, instance=Planar-1
    5,   13,   14,   17,   20, 1409, 1419, 1422, 1434, 1481, 1484, 1485, 1680, 2379, 2692, 2693
 2694, 2696, 2697, 2703, 2705, 2708, 2710, 2711, 2713, 2715, 2716, 2721, 2722, 2724, 2727, 2729
 2730, 2733, 2734, 2789, 2790, 2792, 2793, 2799, 2801, 2804, 2806, 2807, 2809, 2811, 2812, 2817
 2818, 2820, 2823, 2825, 2826, 2829, 2834, 2836, 2838, 2840, 2842, 2844, 2846, 2848, 2850, 2852
 2854, 2856, 2858, 2860, 2871, 2875, 2877, 2879, 2889, 2894, 2909, 2913, 2915, 2917, 2927, 2931
 2938, 2939, 2941, 2943, 2946, 2949, 2951, 2953, 2955, 2958, 2959, 2961, 2963, 2966, 2967, 2970
 2971, 2973, 2978, 2979, 2981, 2983, 2988, 2990, 2993, 2998, 2999, 3005, 3010, 3013, 3019, 3025
 3030, 3032, 3035, 3040, 3041, 3047, 3052, 3055, 3061, 3067
*Elset, elset=MatrixElement, instance=Planar-1
 6292,
*Nset, nset=RightBoundary, instance=Planar-1
   2,   3, 126, 127, 128, 129, 130, 131, 132, 133, 134, 135, 136, 137, 138, 139
 140, 141, 142, 143, 144, 145, 146, 147, 148, 149, 150, 151, 152, 153, 154, 155
 156, 157, 158, 159, 160, 161, 162, 163, 164, 165, 166, 167, 168, 169, 170, 171
 172, 173, 174, 175, 176, 177, 178, 179, 180, 181, 182, 183, 184, 185
*Elset, elset=RightBoundary, instance=Planar-1
 1409, 1419, 1422, 1434, 1485, 1680, 2379, 2692, 2693, 2694, 2696, 2697, 2703, 2705, 2708, 2710
 2711, 2713, 2715, 2716, 2721, 2722, 2724, 2727, 2729, 2730, 2733, 2848, 2850, 2852, 2854, 2856
 2858, 2860, 2871, 2875, 2877, 2879, 2889, 2894, 2961, 2963, 2966, 2967, 2970, 2971, 2973, 2978
 2979, 2981, 2983, 2988, 2990, 2993, 2998, 2999, 3005, 3010, 3013, 3019, 3025
*Elset, elset=ShearBandElement, instance=Planar-1
 8410,
*Nset, nset=Top_Surface, instance=Planar-1
   3,   4, 186, 187, 188, 189, 190, 191, 192, 193, 194, 195, 196, 197, 198, 199
 200, 201, 202, 203, 204, 205, 206, 207, 208, 209, 210, 211, 212, 213, 214, 215
 216, 217, 218, 219, 220, 221, 222, 223, 224, 225, 226, 227, 228, 229, 230, 231
 232, 233, 234, 235, 236, 237, 238, 239, 240, 241, 242, 243, 244, 245, 246, 247
 248, 249, 250, 251, 252, 253, 254, 255, 256, 257, 258, 259, 260, 261, 262, 263
 264, 265, 266, 267, 268, 269, 270, 271, 272, 273, 274, 275, 276, 277, 278, 279
 280, 281, 282, 283, 284, 285, 286, 287, 288, 289, 290, 291, 292, 293, 294, 295
 296, 297, 298, 299, 300, 301, 302, 303, 304, 305
*Elset, elset=Top_Surface, instance=Planar-1
   43,   65,   87,  153,  175,  197,  219,  241,  308,  329,  461,  505,  593,  637,  826,  848
  958, 1002, 1090, 1112, 1134, 1222, 1244, 1266, 1333, 1435, 1447, 1458, 2693, 2734, 2736, 2737
 2738, 2740, 2741, 2742, 2743, 2746, 2747, 2748, 2751, 2752, 2753, 2756, 2757, 2758, 2761, 2762
 2763, 2766, 2767, 2768, 2771, 2772, 2773, 2774, 2776, 2777, 2778, 2781, 2782, 2783, 2784, 2786
 3215, 3993, 4108, 4114, 4337, 4544, 4675, 4758, 4969, 5066, 5267, 5634, 6736, 6744, 6752, 6758
 6766, 6772, 6780, 6819, 6821, 6823, 6825, 6827, 6829, 6831, 6833, 6836, 6838, 6854, 6858, 6862
 6887, 6895, 6897, 6918, 6922, 6932, 6938, 6952, 6954, 6966, 6974, 6982, 6994, 6996, 7075, 7080
 7081, 7087, 7089, 7096, 7097, 7104, 7105, 7111, 7114
*Elset, elset=_AllSurfaces_S2, internal, instance=Planar-1
    5,   13,   14,   17,   20,   43,   45,   65,   67,   87,   89,  111,  133,  153,  175,  177
  197,  199,  219,  221,  241,  243,  265,  308,  329,  331,  353,  375,  397,  461,  463,  485
  505,  507,  551,  573,  593,  595,  617,  637,  639,  683,  701,  713,  725,  762,  784,  826
  828,  848,  850,  872,  894,  916,  958,  960,  982, 1002, 1004, 1005, 1026, 1048, 1090, 1092
 1112, 1114, 1134, 1136, 1158, 1180, 1202, 1222, 1224, 1244, 1246, 1266, 1268, 1290, 1333, 1356
 1378, 1400, 1409, 1419, 1422, 1434, 1435, 1447, 1458, 1481, 1484, 1485, 1680, 2379, 2639, 2640
 2643, 2644, 2645, 2648, 2649, 2650, 2653, 2654, 2655, 2657, 2658, 2659, 2662, 2663, 2664, 2668
 2669, 2673, 2674, 2678, 2679, 2683, 2684, 2685, 2686, 2688, 2689, 2690, 2692, 2693, 2694, 2696
 2697, 2703, 2705, 2708, 2710, 2711, 2713, 2715, 2716, 2721, 2722, 2724, 2727, 2729, 2730, 2733
 2734, 2736, 2737, 2738, 2740, 2741, 2742, 2743, 2746, 2747, 2748, 2751, 2752, 2753, 2756, 2757
 2758, 2761, 2762, 2763, 2766, 2767, 2768, 2771, 2772, 2773, 2774, 2776, 2777, 2778, 2781, 2782
 2783, 2784, 2786, 2789, 2790, 2792, 2793, 2799, 2801, 2804, 2806, 2807, 2809, 2811, 2812, 2817
 2818, 2820, 2823, 2825, 2826, 2829, 2834, 2836, 2838, 2840, 2842, 2844, 2846, 2848, 2850, 2852
 2854, 2856, 2858, 2860, 2871, 2875, 2877, 2879, 2889, 2894, 2909, 2913, 2915, 2917, 2927, 2931
 2938, 2939, 2941, 2943, 2946, 2949, 2951, 2953, 2955, 2958, 2959, 2961, 2963, 2966, 2967, 2970
 2971, 2973, 2978, 2979, 2981, 2983, 2988, 2990, 2993, 2998, 2999, 3005, 3010, 3013, 3019, 3025
 3030, 3032, 3035, 3040, 3041, 3047, 3052, 3055, 3061, 3067, 3215, 3221, 3993, 4108, 4112, 4114
 4335, 4337, 4544, 4652, 4675, 4758, 4969, 5066, 5068, 5267, 5632, 5634, 6736, 6744, 6752, 6758
 6766, 6772, 6780, 6793, 6795, 6797, 6799, 6801, 6803, 6805, 6807, 6809, 6813, 6819, 6821, 6823
 6825, 6827, 6829, 6831, 6833, 6836, 6838, 6854, 6858, 6862, 6872, 6876, 6878, 6880, 6887, 6895
 6897, 6918, 6922, 6932, 6938, 6952, 6954, 6966, 6974, 6982, 6994, 6996, 7018, 7020, 7026, 7028
 7031, 7034, 7038, 7043, 7046, 7051, 7054, 7056, 7060, 7061, 7064, 7068, 7070, 7075, 7080, 7081
 7087, 7089, 7096, 7097, 7104, 7105, 7111, 7114
*Elset, elset=_AllSurfaces_S1, internal, instance=Planar-1
 2692, 2693, 2734, 2789
*Surface, type=ELEMENT, name=AllSurfaces
_AllSurfaces_S2, S2
_AllSurfaces_S1, S1
*Elset, elset=_BottomSurface_S2, internal, instance=Planar-1
   45,   67,   89,  111,  133,  177,  199,  221,  243,  265,  331,  353,  375,  397,  463,  485
  507,  551,  573,  595,  617,  639,  683,  701,  713,  725,  762,  784,  828,  850,  872,  894
  916,  960,  982, 1004, 1005, 1026, 1048, 1092, 1114, 1136, 1158, 1180, 1202, 1224, 1246, 1268
 1290, 1356, 1378, 1400, 2639, 2640, 2643, 2644, 2645, 2648, 2649, 2650, 2653, 2654, 2655, 2657
 2658, 2659, 2662, 2663, 2664, 2668, 2669, 2673, 2674, 2678, 2679, 2683, 2684, 2685, 2686, 2688
 2689, 2690, 2789, 3221, 4112, 4335, 4652, 5068, 5632, 6793, 6795, 6797, 6799, 6801, 6803, 6805
 6807, 6809, 6813, 6872, 6876, 6878, 6880, 7018, 7020, 7026, 7028, 7031, 7034, 7038, 7043, 7046
 7051, 7054, 7056, 7060, 7061, 7064, 7068, 7070
*Elset, elset=_BottomSurface_S1, internal, instance=Planar-1
 2692,
*Surface, type=ELEMENT, name=BottomSurface
_BottomSurface_S2, S2
_BottomSurface_S1, S1
*Elset, elset=_LeftSurface_S2, internal, instance=Planar-1
    5,   13,   14,   17,   20, 1481, 1484, 2734, 2790, 2792, 2793, 2799, 2801, 2804, 2806, 2807
 2809, 2811, 2812, 2817, 2818, 2820, 2823, 2825, 2826, 2829, 2834, 2836, 2838, 2840, 2842, 2844
 2846, 2909, 2913, 2915, 2917, 2927, 2931, 2938, 2939, 2941, 2943, 2946, 2949, 2951, 2953, 2955
 2958, 2959, 3030, 3032, 3035, 3040, 3041, 3047, 3052, 3055, 3061, 3067
*Elset, elset=_LeftSurface_S1, internal, instance=Planar-1
 2789,
*Surface, type=ELEMENT, name=LeftSurface
_LeftSurface_S2, S2
_LeftSurface_S1, S1
*Elset, elset=_LeftandRight_S2, internal, instance=Planar-1
    5,   13,   14,   17,   20, 1409, 1419, 1422, 1434, 1481, 1484, 1485, 1680, 2379, 2692, 2694
 2696, 2697, 2703, 2705, 2708, 2710, 2711, 2713, 2715, 2716, 2721, 2722, 2724, 2727, 2729, 2730
 2733, 2734, 2790, 2792, 2793, 2799, 2801, 2804, 2806, 2807, 2809, 2811, 2812, 2817, 2818, 2820
 2823, 2825, 2826, 2829, 2834, 2836, 2838, 2840, 2842, 2844, 2846, 2848, 2850, 2852, 2854, 2856
 2858, 2860, 2871, 2875, 2877, 2879, 2889, 2894, 2909, 2913, 2915, 2917, 2927, 2931, 2938, 2939
 2941, 2943, 2946, 2949, 2951, 2953, 2955, 2958, 2959, 2961, 2963, 2966, 2967, 2970, 2971, 2973
 2978, 2979, 2981, 2983, 2988, 2990, 2993, 2998, 2999, 3005, 3010, 3013, 3019, 3025, 3030, 3032
 3035, 3040, 3041, 3047, 3052, 3055, 3061, 3067
*Elset, elset=_LeftandRight_S1, internal, instance=Planar-1
 2693, 2789
*Surface, type=ELEMENT, name=LeftandRight
_LeftandRight_S2, S2
_LeftandRight_S1, S1
*Elset, elset=_RightSurface_S2, internal, instance=Planar-1
 1409, 1419, 1422, 1434, 1485, 1680, 2379, 2692, 2694, 2696, 2697, 2703, 2705, 2708, 2710, 2711
 2713, 2715, 2716, 2721, 2722, 2724, 2727, 2729, 2730, 2733, 2848, 2850, 2852, 2854, 2856, 2858
 2860, 2871, 2875, 2877, 2879, 2889, 2894, 2961, 2963, 2966, 2967, 2970, 2971, 2973, 2978, 2979
 2981, 2983, 2988, 2990, 2993, 2998, 2999, 3005, 3010, 3013, 3019, 3025
*Elset, elset=_RightSurface_S1, internal, instance=Planar-1
 2693,
*Surface, type=ELEMENT, name=RightSurface
_RightSurface_S2, S2
_RightSurface_S1, S1
*Elset, elset=_TopSurface_S2, internal, instance=Planar-1
   43,   65,   87,  153,  175,  197,  219,  241,  308,  329,  461,  505,  593,  637,  826,  848
  958, 1002, 1090, 1112, 1134, 1222, 1244, 1266, 1333, 1435, 1447, 1458, 2693, 2736, 2737, 2738
 2740, 2741, 2742, 2743, 2746, 2747, 2748, 2751, 2752, 2753, 2756, 2757, 2758, 2761, 2762, 2763
 2766, 2767, 2768, 2771, 2772, 2773, 2774, 2776, 2777, 2778, 2781, 2782, 2783, 2784, 2786, 3215
 3993, 4108, 4114, 4337, 4544, 4675, 4758, 4969, 5066, 5267, 5634, 6736, 6744, 6752, 6758, 6766
 6772, 6780, 6819, 6821, 6823, 6825, 6827, 6829, 6831, 6833, 6836, 6838, 6854, 6858, 6862, 6887
 6895, 6897, 6918, 6922, 6932, 6938, 6952, 6954, 6966, 6974, 6982, 6994, 6996, 7075, 7080, 7081
 7087, 7089, 7096, 7097, 7104, 7105, 7111, 7114
*Elset, elset=_TopSurface_S1, internal, instance=Planar-1
 2734,
*Surface, type=ELEMENT, name=TopSurface
_TopSurface_S2, S2
_TopSurface_S1, S1
*End Assembly
*Amplitude, name=CompressionAmp, time=TOTAL TIME
             0.,              1., 80801600000000.,              1.
*Amplitude, name=GravityAmp, time=TOTAL TIME
             0.,              1.,              1.,              1.
*Amplitude, name=Vx
             0.,              1., 80801600000000.,              1.
*Amplitude, name=Vy
             0.,              1., 80801600000000.,              1.
** 
** MATERIALS
** 
*Material, name=Inclusion
*Density
2700.,
*Depvar
     28,
*User Material, constants=18, type=MECHANICAL
 7.5e+10,    0.25, 100000.,      0.,      1.,      0.,      0.,   2700.
   1050.,      0.,    8.31,   1e-20,   1e+15,     10.,    273., 3.5e-05
   0.005,   0.035
*User Material, constants=3, type=THERMAL
 2.5,1050.,2700.
*Material, name=Matrix
*Density
2700.,
*Depvar
     28,
*User Material, constants=18, type=MECHANICAL
 7.5e+10,       0.25,      5e+07,         0.,        3.3,        30.,        30.,      2700.
      1050.,    186500.,       8.31, 3.1623e-26,      1e+15,        10.,       273.,    3.5e-05
      0.005,      0.035
*User Material, constants=3, type=THERMAL
 2.5,1050.,2700.
** 
** BOUNDARY CONDITIONS
** 
** Name: Fixed4GravBottom Type: Velocity/Angular velocity
*Boundary, type=VELOCITY
BottomBoundary, 2, 2
** Name: Fixed4GravLR Type: Velocity/Angular velocity
*Boundary, type=VELOCITY
LeftandRight, 1, 1
** 
** PREDEFINED FIELDS
** 
** Name: TemperatureGradient   Type: Temperature
*Initial Conditions, type=TEMPERATURE, file=C:\Users\kees1\OneDrive\Documents\PostDoc\AbaqusSimulations\Duretz2021POF\000_Duretz_et_al_2020_TEMP.odb, step=1, inc=1000, interpolate
** ----------------------------------------------------------------
** 
** STEP: GravityLoad
** 
*Step, name=GravityLoad, nlgeom=YES
*Coupled Temperature-displacement, creep=none, deltmx=1e+21, stabilize=0.0002, allsdtol=0.05, continue=NO
1., 1., 1., 1.
** 
** LOADS
** 
** Name: Gravity   Type: Gravity
*Dload, amplitude=GravityAmp
EntireGeometry, GRAV, 10., 0., -1.
** Name: ZeroTraction   Type: Surface traction
*Dsload, amplitude=CompressionAmp
AllSurfaces, TRSHR, 1e-99, 1., 0., 0.
** 
** OUTPUT REQUESTS
** 
*Restart, write, frequency=0
** 
** FIELD OUTPUT: GravityLoad
** 
*Output, field
*Node Output
NT, U, V
*Element Output, directions=YES
BF, E, EE, ER, ESDV, GRAV, IE, LE, MISES, MISESONLY, NE, P, S, SDV, TEMP
*Contact Output
CSTRESSERI, 
*Radiation Output
FTEMP, 
** 
** HISTORY OUTPUT: InclusionElementGRAV
** 
*Output, history
*Element Output, elset=InclusionElement
E11, E12, E13, E22, E23, E33, EP, INV3, PRESS, S11, S12, S13, S22, S23, S33, SDV
SP, TEMP, TRESC
** 
** HISTORY OUTPUT: MatrixElementGRAV
** 
*Element Output, elset=MatrixElement
E11, E12, E13, E22, E23, E33, EP, INV3, PRESS, S11, S12, S13, S22, S23, S33, SDV
SP, TEMP, TRESC
** 
** HISTORY OUTPUT: ShearBandElementGRAV
** 
*Element Output, elset=ShearBandElement
E11, E12, E13, E22, E23, E33, EP, INV3, PRESS, S11, S12, S13, S22, S23, S33, SDV
SP, TEMP, TRESC
*End Step
** ----------------------------------------------------------------
** 
** STEP: Compress
** 
*Step, name=Compress, nlgeom=YES, inc=1000000
*Coupled Temperature-displacement, creep=none, deltmx=1e+13, stabilize=0.0002, allsdtol=0.05, continue=NO
1e-20, 8.08016e+13, 1e-20, 8.08016e+13
** 
** BOUNDARY CONDITIONS
** 
** Name: CompressLeftBoundary Type: Velocity/Angular velocity
*Boundary, op=NEW, amplitude=Vx, type=VELOCITY
LeftBoundary, 1, 1, 5e-11
** Name: CompressRightBoundary Type: Velocity/Angular velocity
*Boundary, op=NEW, amplitude=Vx, type=VELOCITY
RightBoundary, 1, 1, -5e-11
** Name: ExtendBottomBoundary Type: Velocity/Angular velocity
*Boundary, op=NEW, amplitude=Vy, type=VELOCITY
BottomBoundary, 2, 2, -1.5e-11
** Name: Fixed4GravBottom Type: Velocity/Angular velocity
*Boundary, op=NEW
** Name: Fixed4GravLR Type: Velocity/Angular velocity
*Boundary, op=NEW
** 
** LOADS
** 
** Name: AdiabaticSides   Type: Surface heat flux
*Dsflux, amplitude=CompressionAmp
AllSurfaces, S, 1e-99
** Name: Gravity   Type: Gravity
*Dload, amplitude=GravityAmp
EntireGeometry, GRAV, 10., 0., -1.
** 
** CONTROLS
** 
*Controls, reset
*Controls, parameters=time incrementation
, , , , , , , 52, , , 
** 
** OUTPUT REQUESTS
** 
*Restart, write, frequency=0
** 
** FIELD OUTPUT: Compress, GravityLoad
** 
*Output, field
*Node Output
NT, U, V
*Element Output, directions=YES
BF, E, EE, ER, ESDV, GRAV, IE, LE, MISES, MISESONLY, NE, P, S, SDV, TEMP
*Contact Output
CSTRESSERI, 
*Radiation Output
FTEMP, 
** 
** HISTORY OUTPUT: InclusionElement, InclusionElementGRAV
** 
*Output, history
*Element Output, elset=InclusionElement
E11, E12, E13, E22, E23, E33, EP, INV3, PRESS, S11, S12, S13, S22, S23, S33, SDV
SP, TEMP, TRESC
** 
** HISTORY OUTPUT: MatrixElement, MatrixElementGRAV
** 
*Element Output, elset=MatrixElement
E11, E12, E13, E22, E23, E33, EP, INV3, PRESS, S11, S12, S13, S22, S23, S33, SDV
SP, TEMP, TRESC
** 
** HISTORY OUTPUT: ShearBandElement, ShearBandElementGRAV
** 
*Element Output, elset=ShearBandElement
E11, E12, E13, E22, E23, E33, EP, INV3, PRESS, S11, S12, S13, S22, S23, S33, SDV
SP, TEMP, TRESC
*End Step
