*Heading
** Job name: 005AA_large_scale_compression_top_and_botom_temp_OC Model name: 005AA_large_scale_compression_top_and_bottom_temp_OC
** Generated by: Abaqus/CAE 2019
*Preprint, echo=NO, model=NO, history=NO, contact=NO
**
** PARTS
**
*Part, name=Planar
*End Part
**  
**
** ASSEMBLY
**
*Assembly, name=Assembly
**  
*Instance, name=Planar-1, part=Planar
*Node
      1,     -104800.,     1184600.
      2,    -1104800.,     1184600.
      3,    -1104800.,      896600.
      4,     -104800.,      896600.
      5,   -624373.75,   1156145.12
      6,     -104800.,     1196600.
      7,    -1104800.,     1196600.
      8,     -109800.,     1184600.
      9,  -114774.914,     1184600.
     10,  -119724.859,     1184600.
     11,  -124649.969,     1184600.
     12,  -129550.367,     1184600.
     13,  -134426.172,     1184600.
     14,  -139277.516,     1184600.
     15,  -144104.516,     1184600.
     16,  -148907.297,     1184600.
     17,  -153685.984,     1184600.
     18,  -158440.672,     1184600.
     19,  -163171.516,     1184600.
     20,  -167878.625,     1184600.
** ... 6512 like lines cut
*Element, type=CPE3T
    1,  969,    9,  966
    2, 2449, 2177, 1893
    3, 4525, 3905, 4330
    4, 5003, 4819, 5001
    5, 5230, 5069, 5227
    6, 4272, 4047, 3811
    7, 4038, 3809, 3572
    8, 5518, 5471, 5405
    9, 4969, 4809, 4811
   10, 4075, 4073, 3849
   11, 2961, 2446, 2713
   12, 1291, 1290,  976
   13,  977,  976,  291
   14, 5665, 2966, 1293
   15, 5665,  293,  294
   16,  294,  295,  663
   17,  296,  663,  295
   18, 5671,  296,  664
   19, 5668,  297,  298
   20, 5668,  664,  297
** ... 12714 like lines cut
*Nset, nset=EntireGeometry, generate
    1,  6532,     1
*Elset, elset=EntireGeometry, generate
     1,  12734,      1
*Nset, nset=Mantle
    1,    2,    3,    4,    5,    8,    9,   10,   11,   12,   13,   14,   15,   16,   17,   18
   19,   20,   21,   22,   23,   24,   25,   26,   27,   28,   29,   30,   31,   32,   33,   34
   35,   36,   37,   38,   39,   40,   41,   42,   43,   44,   45,   46,   47,   48,   49,   50
   51,   52,   53,   54,   55,   56,   57,   58,   59,   60,   61,   62,   63,   64,   65,   66
   67,   68,   69,   70,   71,   72,   73,   74,   75,   76,   77,   78,   79,   80,   81,   82
   83,   84,   85,   86,   87,   88,   89,   90,   91,   92,   93,   94,   95,   96,   97,   98
   99,  100,  101,  102,  103,  104,  105,  106,  107,  108,  109,  110,  111,  112,  113,  114
  115,  116,  117,  118,  119,  120,  121,  122,  123,  124,  125,  126,  127,  128,  129,  130
  131,  132,  133,  134,  135,  136,  137,  138,  139,  140,  141,  142,  143,  144,  145,  146
  147,  148,  149,  150,  151,  152,  153,  154,  155,  156,  157,  158,  159,  160,  161,  162
  163,  164,  165,  166,  167,  168,  169,  170,  171,  172,  173,  174,  175,  176,  177,  178
  179,  180,  181,  182,  183,  184,  185,  186,  187,  188,  189,  190,  191,  192,  193,  194
  195,  196,  197,  198,  199,  200,  201,  202,  203,  204,  205,  206,  207,  208,  209,  210
  211,  212,  213,  214,  215,  216,  217,  218,  219,  220,  221,  222,  223,  224,  225,  226
  227,  228,  229,  230,  231,  232,  233,  234,  235,  236,  237,  238,  239,  240,  241,  242
  243,  244,  245,  246,  247,  248,  249,  250,  251,  252,  253,  254,  255,  256,  257,  258
  259,  260,  261,  262,  263,  264,  265,  266,  267,  268,  269,  270,  271,  272,  273,  274
  275,  276,  277,  278,  279,  280,  281,  282,  283,  284,  285,  286,  287,  288,  289,  290
  291,  292,  293,  294,  295,  296,  297,  298,  299,  300,  301,  302,  303,  304,  305,  306
  307,  308,  309,  310,  311,  312,  313,  314,  315,  316,  317,  318,  319,  320,  321,  322
** ... 317 like lines cut
*Elset, elset=Mantle, generate
     1,  10430,      1
*Nset, nset=Crust
    1,    2,    6,    7,    8,    9,   10,   11,   12,   13,   14,   15,   16,   17,   18,   19
   20,   21,   22,   23,   24,   25,   26,   27,   28,   29,   30,   31,   32,   33,   34,   35
   36,   37,   38,   39,   40,   41,   42,   43,   44,   45,   46,   47,   48,   49,   50,   51
   52,   53,   54,   55,   56,   57,   58,   59,   60,   61,   62,   63,   64,   65,   66,   67
   68,   69,   70,   71,   72,   73,   74,   75,   76,   77,   78,   79,   80,   81,   82,   83
   84,   85,   86,   87,   88,   89,   90,   91,   92,   93,   94,   95,   96,   97,   98,   99
  100,  101,  102,  103,  104,  105,  106,  107,  108,  109,  110,  111,  112,  113,  114,  115
  116,  117,  118,  119,  120,  121,  122,  123,  124,  125,  126,  127,  128,  129,  130,  131
  132,  133,  134,  135,  136,  137,  138,  139,  140,  141,  142,  143,  144,  145,  146,  147
  148,  149,  150,  151,  152,  153,  154,  155,  156,  157,  158,  159,  160,  161,  162,  163
  164,  165,  166,  167,  168,  169,  170,  171,  172,  173,  174,  175,  176,  177,  178,  179
  180,  181,  182,  183,  184,  185,  186,  187,  188,  189,  190,  191,  192,  193,  194,  195
  196,  197,  198,  199,  200,  201,  202,  203,  204,  205,  206,  207,  208,  209,  210,  211
  212,  213,  214,  215,  216,  217,  218,  219,  220,  221,  222,  223,  224,  225,  226,  227
  228,  229,  230,  231,  232,  233,  234,  235,  236,  237,  238,  239,  240,  241,  242,  243
  244,  245,  246,  247,  248,  249,  250,  251,  252,  253,  254,  255,  256,  257,  258,  259
  260,  261,  262,  263,  264,  265,  266,  267,  268,  269,  270,  271,  272,  273,  274,  275
  276,  277,  278,  279,  280,  281,  282,  283,  357,  358,  359,  360,  361,  362,  363,  364
  365,  366,  367,  368,  369,  370,  371,  372,  373,  374,  375,  376,  377,  378,  379,  380
  381,  382,  383,  384,  385,  386,  387,  388,  389,  390,  391,  392,  393,  394,  395,  396
** ... 64 like lines cut
*Elset, elset=Crust, generate
 10431,  12548,      1
*Nset, nset=WeakShearZone
    5,  322,  323,  324,  325,  326,  327,  328,  329,  330,  331,  332,  333,  334,  335,  336
  337,  338,  339,  340,  341,  342,  343,  344,  345,  346,  347,  348,  349,  350,  351,  352
  353,  354,  355,  356, 6457, 6458, 6459, 6460, 6461, 6462, 6463, 6464, 6465, 6466, 6467, 6468
 6469, 6470, 6471, 6472, 6473, 6474, 6475, 6476, 6477, 6478, 6479, 6480, 6481, 6482, 6483, 6484
 6485, 6486, 6487, 6488, 6489, 6490, 6491, 6492, 6493, 6494, 6495, 6496, 6497, 6498, 6499, 6500
 6501, 6502, 6503, 6504, 6505, 6506, 6507, 6508, 6509, 6510, 6511, 6512, 6513, 6514, 6515, 6516
 6517, 6518, 6519, 6520, 6521, 6522, 6523, 6524, 6525, 6526, 6527, 6528, 6529, 6530, 6531, 6532
*Elset, elset=WeakShearZone, generate
 12549,  12734,      1
*Elset, elset=_BottomBoundary_S3, internal
 17,
*Elset, elset=_BottomBoundary_S2, internal
    19,    42,    50,    58,    62,    66,   373, 10389, 10401, 10407, 10421, 10426, 10427, 10430
*Elset, elset=_BottomBoundary_S1, internal
 374, 377
*Surface, type=ELEMENT, name=BottomBoundary
_BottomBoundary_S3, S3
_BottomBoundary_S2, S2
_BottomBoundary_S1, S1
*Elset, elset=_LeftBoundary_S2, internal
 11107, 11258, 11264, 11266
*Elset, elset=_LeftBoundary_S1, internal
 11252,
*Surface, type=ELEMENT, name=LeftBoundary
_LeftBoundary_S2, S2
_LeftBoundary_S1, S1
*Elset, elset=_RightBoundary_S2, internal
 10955, 11256, 11260, 11262
*Elset, elset=_RightBoundary_S1, internal
 11104,
*Surface, type=ELEMENT, name=RightBoundary
_RightBoundary_S2, S2
_RightBoundary_S1, S1
*Elset, elset=_TopSurface_S3, internal
 10432, 10506, 10815, 10823, 10827, 10839, 10847, 10863, 10867
*Elset, elset=_TopSurface_S2, internal
 10442, 10463, 10464, 10465, 10472, 10474, 10475, 10484, 10486, 10494, 10496, 10497, 10508, 10517, 10528, 10531
 10570, 10582, 10590, 10598, 10606, 10618, 10638, 10642, 10654, 10655, 10661, 10663, 10674, 10683, 10685, 10693
 10695, 10696, 10705, 10707, 10708, 10716, 10718, 10719, 10727, 10729, 10740, 10749, 10750, 10751, 10759, 10763
 10767, 10771, 10775, 10776, 10780, 10784, 10787, 10791, 10795, 10800, 10803, 10807, 10812, 10816, 10819, 10831
 10835, 10843, 10848, 10851, 10855, 10856, 10875, 10876, 10877, 10878, 10879, 10880, 10881, 10882, 10886, 10887
 10890, 10894, 10898, 10902, 10906, 10907, 10910, 10911, 10916, 10917, 10918, 10919, 10920, 10921, 10923, 10927
 10931, 10932, 10935, 10940, 10943, 11104, 11116, 11118, 11121, 11122, 11128, 11129, 11130, 11131, 11132, 11139
 11140, 11141, 11145, 11149, 11152, 11155, 11158, 11161, 11163, 11166, 11168, 11170, 11172, 11177, 11179, 11181
 11183, 11185, 11190, 11192, 11194, 11197, 11199, 11202, 11205, 11208, 11211, 11212, 11215, 11216, 11217, 11221
 11222, 11223, 11224, 11225, 11231, 11232, 11233, 11234, 11269, 11283, 11290, 11293, 11309, 11312, 11333, 11336
 11350, 11357, 11359, 11366, 11374, 11381, 11383, 11390, 11405, 11414, 11419, 11427, 11441, 11444, 11458, 11465
 11474, 11479, 11489, 11505, 11508, 11522, 11529, 11538, 11545, 11548, 11562, 11564, 11567, 11578, 11583, 11590
 11602, 11607, 11618, 11625, 11628, 11642, 11647, 11665, 11668, 11681, 11684, 11696, 11705, 11719, 11726, 11735
 11742, 11749, 11761, 11770, 11775, 11790, 11793, 11809, 11812, 11823, 11828, 11839, 11846, 11857, 11873, 11875
 11876, 11890, 11894, 11897, 11906, 11909, 11913, 11922, 11929, 11938, 11941, 11945, 11954, 12007, 12069, 12340
 12368, 12383, 12387, 12464, 12471, 12479, 12500, 12502, 12506, 12508, 12521
*Elset, elset=_TopSurface_S1, internal
 10519, 10530, 10922, 10939, 10947, 10951, 11107, 11108, 11111, 11113, 11114, 11115, 11241, 11244, 11245, 11246
 11250,
*Surface, type=ELEMENT, name=TopSurface
_TopSurface_S3, S3
_TopSurface_S2, S2
_TopSurface_S1, S1
** Section: Mantle
*Solid Section, elset=Mantle, material=Mantle
,
** Section: Crust
*Solid Section, elset=Crust, material=Crust
,
** Section: WeakShearZone
*Solid Section, elset=WeakShearZone, material=WeakShearZone
,
*End Instance
**  
*Elset, elset=AllElements, instance=Planar-1, generate
     1,  12734,      1
*Nset, nset=AllNodes, instance=Planar-1, generate
    1,  6532,     1
*Nset, nset=BottomBoundary, instance=Planar-1
   3,   4, 295, 296, 297, 298, 299, 300, 301, 302, 303, 304, 305, 306, 307, 308
 309, 310
*Elset, elset=BottomBoundary, instance=Planar-1
    17,    19,    42,    50,    58,    62,    66,   373,   374,   377, 10389, 10401, 10407, 10421, 10426, 10427
 10430,
*Elset, elset=CrustalElement, instance=Planar-1
 12108,
*Nset, nset=EntireGeometry, instance=Planar-1, generate
    1,  6532,     1
*Elset, elset=EntireGeometry, instance=Planar-1, generate
     1,  12734,      1
*Nset, nset=LeftBoundary, instance=Planar-1
   2,   3,   7, 284, 285, 286, 287, 288, 289, 290, 291, 292, 293, 294, 637, 638
 639, 640
*Elset, elset=LeftBoundary, instance=Planar-1
    15,   364,   369,   373,  1004,  1010,  1014,  1020,  1022,  1632,  1633,  1634, 11107, 11252, 11258, 11264
 11266,
*Nset, nset=LeftandRightBoundary, instance=Planar-1
   1,   2,   3,   4,   6,   7, 284, 285, 286, 287, 288, 289, 290, 291, 292, 293
 294, 311, 312, 313, 314, 315, 316, 317, 318, 319, 320, 321, 357, 358, 359, 360
 637, 638, 639, 640
*Elset, elset=LeftandRightBoundary, instance=Planar-1
    15,    74,   364,   369,   373,   379,   387,   982,  1004,  1006,  1009,  1010,  1013,  1014,  1017,  1019
  1020,  1022,  1025,  1630,  1632,  1633,  1634,  2867, 10955, 11104, 11107, 11252, 11256, 11258, 11260, 11262
 11264, 11266
*Nset, nset=Mantle, instance=Planar-1
    1,    2,    3,    4,    5,    8,    9,   10,   11,   12,   13,   14,   15,   16,   17,   18
   19,   20,   21,   22,   23,   24,   25,   26,   27,   28,   29,   30,   31,   32,   33,   34
   35,   36,   37,   38,   39,   40,   41,   42,   43,   44,   45,   46,   47,   48,   49,   50
   51,   52,   53,   54,   55,   56,   57,   58,   59,   60,   61,   62,   63,   64,   65,   66
   67,   68,   69,   70,   71,   72,   73,   74,   75,   76,   77,   78,   79,   80,   81,   82
   83,   84,   85,   86,   87,   88,   89,   90,   91,   92,   93,   94,   95,   96,   97,   98
   99,  100,  101,  102,  103,  104,  105,  106,  107,  108,  109,  110,  111,  112,  113,  114
  115,  116,  117,  118,  119,  120,  121,  122,  123,  124,  125,  126,  127,  128,  129,  130
  131,  132,  133,  134,  135,  136,  137,  138,  139,  140,  141,  142,  143,  144,  145,  146
  147,  148,  149,  150,  151,  152,  153,  154,  155,  156,  157,  158,  159,  160,  161,  162
  163,  164,  165,  166,  167,  168,  169,  170,  171,  172,  173,  174,  175,  176,  177,  178
  179,  180,  181,  182,  183,  184,  185,  186,  187,  188,  189,  190,  191,  192,  193,  194
  195,  196,  197,  198,  199,  200,  201,  202,  203,  204,  205,  206,  207,  208,  209,  210
  211,  212,  213,  214,  215,  216,  217,  218,  219,  220,  221,  222,  223,  224,  225,  226
  227,  228,  229,  230,  231,  232,  233,  234,  235,  236,  237,  238,  239,  240,  241,  242
  243,  244,  245,  246,  247,  248,  249,  250,  251,  252,  253,  254,  255,  256,  257,  258
  259,  260,  261,  262,  263,  264,  265,  266,  267,  268,  269,  270,  271,  272,  273,  274
  275,  276,  277,  278,  279,  280,  281,  282,  283,  284,  285,  286,  287,  288,  289,  290
  291,  292,  293,  294,  295,  296,  297,  298,  299,  300,  301,  302,  303,  304,  305,  306
  307,  308,  309,  310,  311,  312,  313,  314,  315,  316,  317,  318,  319,  320,  321,  322
** ... 317 like lines cut
*Elset, elset=Mantle, instance=Planar-1, generate
     1,  10430,      1
*Elset, elset=MantleElement, instance=Planar-1
 9358,
*Nset, nset=PushLeft, instance=Planar-1
   2,   3,   7, 284, 285, 286, 287, 288, 289, 290, 291, 292, 293, 294, 637, 638
 639, 640
*Elset, elset=PushLeft, instance=Planar-1
    15,   364,   369,   373,  1004,  1010,  1014,  1020,  1022,  1632,  1633,  1634, 11107, 11252, 11258, 11264
 11266,
*Nset, nset=RightBoundary, instance=Planar-1
   1,   4,   6, 311, 312, 313, 314, 315, 316, 317, 318, 319, 320, 321, 357, 358
 359, 360
*Elset, elset=RightBoundary, instance=Planar-1
    74,   379,   387,   982,  1006,  1009,  1013,  1017,  1019,  1025,  1630,  2867, 10955, 11104, 11256, 11260
 11262,
*Nset, nset=Top_Surface, instance=Planar-1
   6,   7, 361, 362, 363, 364, 365, 366, 367, 368, 369, 370, 371, 372, 373, 374
 375, 376, 377, 378, 379, 380, 381, 382, 383, 384, 385, 386, 387, 388, 389, 390
 391, 392, 393, 394, 395, 396, 397, 398, 399, 400, 401, 402, 403, 404, 405, 406
 407, 408, 409, 410, 411, 412, 413, 414, 415, 416, 417, 418, 419, 420, 421, 422
 423, 424, 425, 426, 427, 428, 429, 430, 431, 432, 433, 434, 435, 436, 437, 438
 439, 440, 441, 442, 443, 444, 445, 446, 447, 448, 449, 450, 451, 452, 453, 454
 455, 456, 457, 458, 459, 460, 461, 462, 463, 464, 465, 466, 467, 468, 469, 470
 471, 472, 473, 474, 475, 476, 477, 478, 479, 480, 481, 482, 483, 484, 485, 486
 487, 488, 489, 490, 491, 492, 493, 494, 495, 496, 497, 498, 499, 500, 501, 502
 503, 504, 505, 506, 507, 508, 509, 510, 511, 512, 513, 514, 515, 516, 517, 518
 519, 520, 521, 522, 523, 524, 525, 526, 527, 528, 529, 530, 531, 532, 533, 534
 535, 536, 537, 538, 539, 540, 541, 542, 543, 544, 545, 546, 547, 548, 549, 550
 551, 552, 553, 554, 555, 556, 557, 558, 559, 560, 561, 562, 563, 564, 565, 566
 567, 568, 569, 570, 571, 572, 573, 574, 575, 576, 577, 578, 579, 580, 581, 582
 583, 584, 585, 586, 587, 588, 589, 590, 591, 592, 593, 594, 595, 596, 597, 598
 599, 600, 601, 602, 603, 604, 605, 606, 607, 608, 609, 610, 611, 612, 613, 614
 615, 616, 617, 618, 619, 620, 621, 622, 623, 624, 625, 626, 627, 628, 629, 630
 631, 632, 633, 634, 635, 636
*Elset, elset=Top_Surface, instance=Planar-1
 10432, 10442, 10463, 10464, 10465, 10472, 10474, 10475, 10484, 10486, 10494, 10496, 10497, 10506, 10508, 10517
 10519, 10528, 10530, 10531, 10570, 10582, 10590, 10598, 10606, 10618, 10638, 10642, 10654, 10655, 10661, 10663
 10674, 10683, 10685, 10693, 10695, 10696, 10705, 10707, 10708, 10716, 10718, 10719, 10727, 10729, 10740, 10749
 10750, 10751, 10759, 10763, 10767, 10771, 10775, 10776, 10780, 10784, 10787, 10791, 10795, 10800, 10803, 10807
 10812, 10815, 10816, 10819, 10823, 10827, 10831, 10835, 10839, 10843, 10847, 10848, 10851, 10855, 10856, 10863
 10867, 10875, 10876, 10877, 10878, 10879, 10880, 10881, 10882, 10886, 10887, 10890, 10894, 10898, 10902, 10906
 10907, 10910, 10911, 10916, 10917, 10918, 10919, 10920, 10921, 10922, 10923, 10927, 10931, 10932, 10935, 10939
 10940, 10943, 10947, 10951, 11104, 11107, 11108, 11111, 11113, 11114, 11115, 11116, 11118, 11121, 11122, 11128
 11129, 11130, 11131, 11132, 11139, 11140, 11141, 11145, 11149, 11152, 11155, 11158, 11161, 11163, 11166, 11168
 11170, 11172, 11177, 11179, 11181, 11183, 11185, 11190, 11192, 11194, 11197, 11199, 11202, 11205, 11208, 11211
 11212, 11215, 11216, 11217, 11221, 11222, 11223, 11224, 11225, 11231, 11232, 11233, 11234, 11241, 11244, 11245
 11246, 11250, 11269, 11283, 11290, 11293, 11309, 11312, 11333, 11336, 11350, 11357, 11359, 11366, 11374, 11381
 11383, 11390, 11405, 11414, 11419, 11427, 11441, 11444, 11458, 11465, 11474, 11479, 11489, 11505, 11508, 11522
 11529, 11538, 11545, 11548, 11562, 11564, 11567, 11578, 11583, 11590, 11602, 11607, 11618, 11625, 11628, 11642
 11647, 11665, 11668, 11681, 11684, 11696, 11705, 11719, 11726, 11735, 11742, 11749, 11761, 11770, 11775, 11790
 11793, 11809, 11812, 11823, 11828, 11839, 11846, 11857, 11873, 11875, 11876, 11890, 11894, 11897, 11906, 11909
 11913, 11922, 11929, 11938, 11941, 11945, 11954, 12007, 12069, 12340, 12368, 12383, 12387, 12464, 12471, 12479
 12500, 12502, 12506, 12508, 12521
*Elset, elset=WeakElement, instance=Planar-1
 12730,
*Elset, elset=_BottomSurface_S3, internal, instance=Planar-1
 17,
*Elset, elset=_BottomSurface_S2, internal, instance=Planar-1
    19,    42,    50,    58,    62,    66,   373, 10389, 10401, 10407, 10421, 10426, 10427, 10430
*Elset, elset=_BottomSurface_S1, internal, instance=Planar-1
 374, 377
*Surface, type=ELEMENT, name=BottomSurface
_BottomSurface_S3, S3
_BottomSurface_S2, S2
_BottomSurface_S1, S1
*Elset, elset=_LeftSurface_S2, internal, instance=Planar-1
    15,   364,   369,  1004,  1010,  1014,  1020,  1022,  1632,  1633,  1634, 11107, 11258, 11264, 11266
*Elset, elset=_LeftSurface_S1, internal, instance=Planar-1
   373, 11252
*Surface, type=ELEMENT, name=LeftSurface
_LeftSurface_S2, S2
_LeftSurface_S1, S1
*Elset, elset=_LeftandRight_S2, internal, instance=Planar-1
    15,    74,   364,   369,   387,   982,  1004,  1006,  1009,  1010,  1013,  1014,  1017,  1019,  1020,  1022
  1025,  1630,  1632,  1633,  1634,  2867, 10955, 11107, 11256, 11258, 11260, 11262, 11264, 11266
*Elset, elset=_LeftandRight_S1, internal, instance=Planar-1
   373,   379, 11104, 11252
*Surface, type=ELEMENT, name=LeftandRight
_LeftandRight_S2, S2
_LeftandRight_S1, S1
*Elset, elset=_RightSurface_S2, internal, instance=Planar-1
    74,   387,   982,  1006,  1009,  1013,  1017,  1019,  1025,  1630,  2867, 10955, 11256, 11260, 11262
*Elset, elset=_RightSurface_S1, internal, instance=Planar-1
   379, 11104
*Surface, type=ELEMENT, name=RightSurface
_RightSurface_S2, S2
_RightSurface_S1, S1
*Elset, elset=_TopSurface_S3, internal, instance=Planar-1
 10432, 10506, 10815, 10823, 10827, 10839, 10847, 10863, 10867
*Elset, elset=_TopSurface_S2, internal, instance=Planar-1
 10442, 10463, 10464, 10465, 10472, 10474, 10475, 10484, 10486, 10494, 10496, 10497, 10508, 10517, 10528, 10531
 10570, 10582, 10590, 10598, 10606, 10618, 10638, 10642, 10654, 10655, 10661, 10663, 10674, 10683, 10685, 10693
 10695, 10696, 10705, 10707, 10708, 10716, 10718, 10719, 10727, 10729, 10740, 10749, 10750, 10751, 10759, 10763
 10767, 10771, 10775, 10776, 10780, 10784, 10787, 10791, 10795, 10800, 10803, 10807, 10812, 10816, 10819, 10831
 10835, 10843, 10848, 10851, 10855, 10856, 10875, 10876, 10877, 10878, 10879, 10880, 10881, 10882, 10886, 10887
 10890, 10894, 10898, 10902, 10906, 10907, 10910, 10911, 10916, 10917, 10918, 10919, 10920, 10921, 10923, 10927
 10931, 10932, 10935, 10940, 10943, 11104, 11116, 11118, 11121, 11122, 11128, 11129, 11130, 11131, 11132, 11139
 11140, 11141, 11145, 11149, 11152, 11155, 11158, 11161, 11163, 11166, 11168, 11170, 11172, 11177, 11179, 11181
 11183, 11185, 11190, 11192, 11194, 11197, 11199, 11202, 11205, 11208, 11211, 11212, 11215, 11216, 11217, 11221
 11222, 11223, 11224, 11225, 11231, 11232, 11233, 11234, 11269, 11283, 11290, 11293, 11309, 11312, 11333, 11336
 11350, 11357, 11359, 11366, 11374, 11381, 11383, 11390, 11405, 11414, 11419, 11427, 11441, 11444, 11458, 11465
 11474, 11479, 11489, 11505, 11508, 11522, 11529, 11538, 11545, 11548, 11562, 11564, 11567, 11578, 11583, 11590
 11602, 11607, 11618, 11625, 11628, 11642, 11647, 11665, 11668, 11681, 11684, 11696, 11705, 11719, 11726, 11735
 11742, 11749, 11761, 11770, 11775, 11790, 11793, 11809, 11812, 11823, 11828, 11839, 11846, 11857, 11873, 11875
 11876, 11890, 11894, 11897, 11906, 11909, 11913, 11922, 11929, 11938, 11941, 11945, 11954, 12007, 12069, 12340
 12368, 12383, 12387, 12464, 12471, 12479, 12500, 12502, 12506, 12508, 12521
*Elset, elset=_TopSurface_S1, internal, instance=Planar-1
 10519, 10530, 10922, 10939, 10947, 10951, 11107, 11108, 11111, 11113, 11114, 11115, 11241, 11244, 11245, 11246
 11250,
*Surface, type=ELEMENT, name=TopSurface
_TopSurface_S3, S3
_TopSurface_S2, S2
_TopSurface_S1, S1
*End Assembly
*Amplitude, name=CompressionAmp, time=TOTAL TIME
             0.,              1., 315600000000000.,              1.
*Amplitude, name=GravityAmp, time=TOTAL TIME
             0.,              1., 100000000000000.,              1.
** 
** 
** MATERIALS
**
**********************************************************************************************************************
**********************************************************************************************************************
*Material, name=Mantle
*Density
 3300.
*Depvar
     28,
*User Material, constants=18, type=MECHANICAL
**E=PROPS(1)  v=PROPS(2)  c_0=PROPS(3)  H=PROPS(4)  PWR=PROPS(5)  phi_i=PROPS(6)    phi_f=PROPS(7)   RHOD_REF=PROPS(8)
**Young's     Poisson's   Initial       Hardening   Stress        Initial friction  Final friction   Reference 
**modulus     ratio       cohesion      modulus     exponent      angle             angle            density
 25e+09,      0.25,       1e+06,        5e+06,      3.5,          23.6,             30.,             3300.
**C_P=PROPS(9)  E_A=PROPS(10) R=PROPS(11)     A=PROPS(12)      1/MU=PROPS(13)       psi=PROPS(14)    TREF=PROPS(15)
**Specific heat Activation    Molecular gas   Pre-exponential  Relative VP strain   Dilatancy        Reference
**capacity      energy        constant        constants        rate                 angle            temperature 
  1050.,        535000.,      8.31,           2e-21,        1e15,                10.,             280.
**ALPH_LE=PROPS(16)   EPSILON_BAR_C=PROPS(17)                  MUN=PROPS(18)
** Linear expansion   Critical effective plastic strain        Viscosity-related parameter   
   3.5e-05,           0.005,                                   10e-16
*User Material, constants=3, type=THERMAL
** Thermal        Specific         Density
** conductivity   heat capacity    
   3.,           1050.,           3300.
**********************************************************************************************************************
**********************************************************************************************************************
*Material, name=Crust
*Density
 2950.
*Depvar
     28,
*User Material, constants=18, type=MECHANICAL
**E=PROPS(1)  v=PROPS(2)  c_0=PROPS(3)  H=PROPS(4)  PWR=PROPS(5)  phi_i=PROPS(6)     phi_f=PROPS(7)   RHOD_REF=PROPS(8)
**Young's     Poisson's   Initial       Hardening   Stress        Initial friction   Final friction   Reference 
**modulus     ratio       cohesion      modulus     exponent      angle              angle            density
 25e+09,      0.25,       1e+06,        5e+06,      2.3,          23.6,              30.,             2950.
**C_P=PROPS(9)  E_A=PROPS(10) R=PROPS(11)     A=PROPS(12)      1/MU=PROPS(13)        psi=PROPS(14)    TREF=PROPS(15)
**Specific heat Activation    Molecular gas   Pre-exponential  Relative VP strain    Dilatancy        Reference
**capacity      energy        constant        constants        rate                  angle            temperature 
    1050.,      154000.,      8.31,           1.59e-14,        1e15,                 10.,             280.
**ALPH_LE=PROPS(16)   EPSILON_BAR_C=PROPS(17)              MUN=PROPS(18)
** Linear expansion   Critical effective plastic strain    Viscosity-related parameter   
   3.5e-05,           0.005,                               10e-16
*User Material, constants=3, type=THERMAL
** Thermal        Specific         Density
** conductivity   heat capacity    
 3.,             1050.,           2950.
**********************************************************************************************************************
**********************************************************************************************************************
*Material, name=WeakShearZone
*Density
 3100.
*Depvar
     28,
*User Material, constants=18, type=MECHANICAL
**E=PROPS(1)  v=PROPS(2)  c_0=PROPS(3)  H=PROPS(4)  PWR=PROPS(5)  phi_i=PROPS(6)     phi_f=PROPS(7)   RHOD_REF=PROPS(8)
**Young's     Poisson's   Initial       Hardening   Stress        Initial friction   Final friction   Reference 
**modulus     ratio       cohesion      modulus     exponent      angle              angle            density
 25e+09,      0.25,       1e+06,        5e+06,      4.,            2.9,               30.,             3100.
**C_P=PROPS(9)  E_A=PROPS(10) R=PROPS(11)     A=PROPS(12)      1/MU=PROPS(13)       psi=PROPS(14)    TREF=PROPS(15)
**Specific heat Activation    Molecular gas   Pre-exponential  Relative VP strain    Dilatancy        Reference
**capacity      energy        constant        constants        rate                  angle            temperature  
    1050.,      283000.,      8.31,           2.08e-23,        1e15,                 5.,              280.
**ALPH_LE=PROPS(16)   EPSILON_BAR_C=PROPS(17)              MUN=PROPS(18)
** Linear expansion   Critical effective plastic strain    Viscosity-related parameter   
   3.5e-05,           0.005,                               10e-16
*User Material, constants=3, type=THERMAL
** Thermal        Specific         Density
** conductivity   heat capacity    
   3.,           1050.,           3100.
** 
** 
** 
**********************************************************************************************************************
**********************************************************************************************************************
**
** 
** INTERACTION PROPERTIES
** 
*Surface Interaction, name=IntProp-1
1.,
*Friction, slip tolerance=0.005
 0.3,
*Surface Behavior, penalty
** 
** BOUNDARY CONDITIONS
** 
** Name: Fixed4Grav Type: Velocity/Angular velocity
*Boundary, type=VELOCITY
LeftandRightBoundary, 1, 1
** Name: FixedBottom Type: Velocity/Angular velocity
*Boundary, type=VELOCITY
BottomBoundary, 2, 2
** 
** PREDEFINED FIELDS
** 
** Name: TemperatureGradient   Type: Temperature
*Initial Conditions, type=TEMPERATURE, file=/DATA/IPGP_PostDoc_Abaqus/010_large_scale_mod/005A_TEMP.odb, step=1, inc=57, interpolate
** 
** INTERACTIONS
** 
** Interaction: Int-1
*Contact Pair, interaction=IntProp-1, type=SURFACE TO SURFACE
TopSurface,
** ----------------------------------------------------------------
** 
** STEP: Gravity
** 
*Step, name=Gravity, nlgeom=YES
*Coupled Temperature-displacement, creep=none, deltmx=1e+21, stabilize, factor=0.0002, allsdtol=0.05, continue=NO
1., 1., 1., 1.
** 
** LOADS
** 
** Name: Gravity   Type: Gravity
*Dload, amplitude=CompressionAmp
EntireGeometry, GRAV, 9.8, 0., -1.
** 
** OUTPUT REQUESTS
** 
*Restart, write, frequency=0
** 
** FIELD OUTPUT: Gravity
** 
*Output, field
*Node Output
NT, U, V
*Element Output, directions=YES
BF, E, EE, ER, ESDV, GRAV, IE, LE, MISES, MISESONLY, NE, P, S, SDV, TEMP
*Radiation Output
FTEMP, 
*Contact Output
CSTRESSERI, 
** 
** HISTORY OUTPUT: Gravity
** 
*Output, history
*Radiation Output
FTEMP, 
*Contact Output
CSTRESS, HTL
*End Step
** ----------------------------------------------------------------
** 
** STEP: Compress
** 
*Step, name=Compress, nlgeom=YES, inc=1000000
*Coupled Temperature-displacement, creep=none, deltmx=1e+13, stabilize=0.0002, allsdtol=0.05, continue=NO
1e-14, 3.1536e+14, 1e-14, 3.1536e+14
** 
** BOUNDARY CONDITIONS
** 
** Name: BottomTemp Type: Temperature
*Boundary, op=NEW
BottomBoundary, 11, 11, 1672.
** Name: CompressLeftBoundary Type: Velocity/Angular velocity
*Boundary, op=NEW, amplitude=CompressionAmp, type=VELOCITY
PushLeft, 1, 1, 6.342e-10
** Name: CompressRightBoundary Type: Velocity/Angular velocity
*Boundary, op=NEW, amplitude=CompressionAmp, type=VELOCITY
RightBoundary, 1, 1, -6.342e-10
** Name: Fixed4Grav Type: Velocity/Angular velocity
*Boundary, op=NEW
** Name: FixedBottom Type: Velocity/Angular velocity
*Boundary, op=NEW, type=VELOCITY
BottomBoundary, 2, 2
** Name: TopTemp Type: Temperature
*Boundary, op=NEW
Top_Surface, 11, 11, 273.
** 
** LOADS
** 
** Name: AdiabaticSides   Type: Surface heat flux
*Dsflux, amplitude=CompressionAmp
LeftandRight, S, 1e-99
** 
** CONTROLS
** 
*Controls, reset
*Controls, parameters=time incrementation
, , , , , , , 52, , , 
** 
** OUTPUT REQUESTS
** 
*Restart, write, frequency=0
** 
** FIELD OUTPUT: Gravity
** 
*Output, field
*Node Output
NT, U, V
*Element Output, directions=YES
BF, E, EE, ER, ESDV, GRAV, IE, LE, MISES, MISESONLY, NE, P, S, SDV, TEMP
*Radiation Output
FTEMP, 
*Contact Output
CSTRESSERI, 
** 
** FIELD OUTPUT: Compress
** 
*Output, field, frequency=20
*Node Output
NT, U, V
*Element Output, directions=YES
BF, E, EE, ER, ESDV, GRAV, IE, LE, MISES, MISESONLY, NE, P, S, SDV, TEMP
*Radiation Output
FTEMP, 
*Contact Output
CSTRESSERI, 
** 
** HISTORY OUTPUT: Compress, Gravity
** 
*Output, history
*Radiation Output
FTEMP, 
*Contact Output
CSTRESS, HTL
** 
** HISTORY OUTPUT: CrustalElement
** 
*Element Output, elset=CrustalElement
E11, E12, E13, E22, E23, E33, PRESS, S11, S12, S13, S22, S23, S33, SDV, TEMP
** 
** HISTORY OUTPUT: MantleElement
** 
*Element Output, elset=MantleElement
E11, E12, E13, E22, E23, E33, PRESS, S11, S12, S13, S22, S23, S33, SDV, TEMP
** 
** HISTORY OUTPUT: WeakElement
** 
*Element Output, elset=WeakElement
E11, E12, E13, E22, E23, E33, PRESS, S11, S12, S13, S22, S23, S33, SDV, TEMP
*End Step
