*Heading
** Job name: 005A_large_scale_compression_top_and_botom_temp_OC Model name: 005A_large_scale_compression_top_and_bottom_temp_OC
** Generated by: Abaqus/CAE 2019
*Preprint, echo=NO, model=NO, history=NO, contact=NO
**
** PARTS
**
*Part, name=Planar
*End Part
**  
**
** ASSEMBLY
**
*Assembly, name=Assembly
**  
*Instance, name=Planar-1, part=Planar
*Node
      1,    -1104800.,     1184600.
      2,     -104800.,     1184600.
      3,     -104800.,     1196600.
      4,    -1104800.,     1196600.
      5,    -1104800.,      896600.
      6,     -104800.,      896600.
      7,    -1099800.,     1184600.
      8,  -1094825.12,     1184600.
      9,  -1089875.12,     1184600.
     10,    -1084950.,     1184600.
     11,  -1080049.62,     1184600.
     12,  -1075173.88,     1184600.
     13,   -1070322.5,     1184600.
     14,   -1065495.5,     1184600.
     15,  -1060692.75,     1184600.
     16,    -1055914.,     1184600.
     17,  -1051159.38,     1184600.
     18,   -1046428.5,     1184600.
     19,  -1041721.38,     1184600.
     20,  -1037037.88,     1184600.
** ... 6523 like lines cut
*Element, type=CPE3T
   1, 1343,  730,    7
   2,  562,  728,  561
   3, 1146,  734,  733
   4, 1053, 1052,  504
   5, 1045,   66,   67
   6, 1045, 1043,  694
   7, 1037,   68,   69
   8, 1318, 1035,  693
   9, 1029,   70,   71
  10, 1032, 1025,  498
  11, 1314, 1025, 1032
  12, 1033,  499,  500
  13, 1318, 1033, 1040
  14, 1041,  694, 1040
  15, 1047,  694, 1041
  16, 1057,   64, 1055
  17, 1055, 1051,  695
  18, 1065,   62, 1063
  19, 1063, 1057,  696
  20, 1062,  696, 1060
** ... 12736 like lines cut
*Nset, nset=Crust
    1,    2,    3,    4,    7,    8,    9,   10,   11,   12,   13,   14,   15,   16,   17,   18
   19,   20,   21,   22,   23,   24,   25,   26,   27,   28,   29,   30,   31,   32,   33,   34
   35,   36,   37,   38,   39,   40,   41,   42,   43,   44,   45,   46,   47,   48,   49,   50
   51,   52,   53,   54,   55,   56,   57,   58,   59,   60,   61,   62,   63,   64,   65,   66
   67,   68,   69,   70,   71,   72,   73,   74,   75,   76,   77,   78,   79,   80,   81,   82
   83,   84,   85,   86,   87,   88,   89,   90,   91,   92,   93,   94,   95,   96,   97,   98
   99,  100,  101,  102,  103,  104,  105,  106,  107,  108,  109,  110,  111,  112,  113,  114
  115,  116,  117,  118,  119,  120,  121,  122,  123,  124,  125,  126,  127,  128,  129,  130
  131,  132,  133,  134,  135,  136,  137,  138,  139,  140,  141,  142,  143,  144,  145,  146
  147,  148,  149,  150,  151,  152,  153,  154,  155,  156,  157,  158,  159,  160,  161,  162
  163,  164,  165,  166,  167,  168,  169,  170,  171,  172,  173,  174,  175,  176,  177,  178
  179,  180,  181,  182,  183,  184,  185,  186,  187,  188,  189,  190,  191,  192,  193,  194
  195,  196,  197,  198,  199,  200,  201,  202,  203,  204,  205,  206,  207,  208,  209,  210
  211,  212,  213,  214,  215,  216,  217,  218,  219,  220,  221,  222,  223,  224,  225,  226
  227,  228,  229,  230,  231,  232,  233,  234,  235,  236,  237,  238,  239,  240,  241,  242
  243,  244,  245,  246,  247,  248,  249,  250,  251,  252,  253,  254,  255,  256,  257,  258
  259,  260,  261,  262,  263,  264,  265,  266,  267,  268,  269,  270,  271,  272,  273,  274
  275,  276,  277,  278,  279,  280,  281,  282,  283,  284,  285,  286,  287,  288,  289,  290
  291,  292,  293,  294,  295,  296,  297,  298,  299,  300,  301,  302,  303,  304,  305,  306
  307,  308,  309,  310,  311,  312,  313,  314,  315,  316,  317,  318,  319,  320,  321,  322
** ... 64 like lines cut
*Elset, elset=Crust, generate
    1,  2118,     1
*Nset, nset=EntireGeometry, generate
    1,  6543,     1
*Elset, elset=EntireGeometry, generate
     1,  12756,      1
*Nset, nset=Mantle
    1,    2,    5,    6,    7,    8,    9,   10,   11,   12,   13,   14,   15,   16,   17,   18
   19,   20,   21,   22,   23,   24,   25,   26,   27,   28,   29,   30,   31,   32,   33,   34
   35,   36,   37,   38,   39,   40,   41,   42,   43,   44,   45,   46,   47,   48,   49,   50
   51,   52,   53,   54,   55,   56,   57,   58,   59,   60,   61,   62,   63,   64,   65,   66
   67,   68,   69,   70,   71,   72,   73,   74,   75,   76,   77,   78,   79,   80,   81,   82
   83,   84,   85,   86,   87,   88,   89,   90,   91,   92,   93,   94,   95,   96,   97,   98
   99,  100,  101,  102,  103,  104,  105,  106,  107,  108,  109,  110,  111,  112,  113,  114
  115,  116,  117,  118,  119,  120,  121,  122,  123,  124,  125,  126,  127,  128,  129,  130
  131,  132,  133,  134,  135,  136,  137,  138,  139,  140,  141,  142,  143,  144,  145,  146
  147,  148,  149,  150,  151,  152,  153,  154,  155,  156,  157,  158,  159,  160,  161,  162
  163,  164,  165,  166,  167,  168,  169,  170,  171,  172,  173,  174,  175,  176,  177,  178
  179,  180,  181,  182,  183,  184,  185,  186,  187,  188,  189,  190,  191,  192,  193,  194
  195,  196,  197,  198,  199,  200,  201,  202,  203,  204,  205,  206,  207,  208,  209,  210
  211,  212,  213,  214,  215,  216,  217,  218,  219,  220,  221,  222,  223,  224,  225,  226
  227,  228,  229,  230,  231,  232,  233,  234,  235,  236,  237,  238,  239,  240,  241,  242
  243,  244,  245,  246,  247,  248,  249,  250,  251,  252,  253,  254,  255,  256,  257,  258
  259,  260,  261,  262,  263,  264,  265,  266,  267,  268,  269,  270,  271,  272,  273,  274
  275,  276,  277,  278,  279,  280,  281,  282,  567,  568,  569,  570,  571,  572,  573,  574
  575,  576,  577,  578,  579,  580,  581,  582,  583,  584,  585,  586,  587,  588,  589,  590
  591,  592,  593,  594,  595,  596,  597,  598,  599,  600,  601,  602,  603,  604, 1383, 1384
** ... 323 like lines cut
*Elset, elset=Mantle, generate
  2119,  12756,      1
*Elset, elset=_BottomBoundary_S3, internal
 2135,
*Elset, elset=_BottomBoundary_S2, internal
  2137,  2155,  2159,  2163,  2167,  2168,  2175,  2179,  2486, 12737, 12747, 12750, 12753, 12756
*Elset, elset=_BottomBoundary_S1, internal
 2487, 2490
*Surface, type=ELEMENT, name=BottomBoundary
_BottomBoundary_S3, S3
_BottomBoundary_S2, S2
_BottomBoundary_S1, S1
*Elset, elset=_LeftBoundary_S2, internal
 677, 828, 834, 836
*Elset, elset=_LeftBoundary_S1, internal
 822,
*Surface, type=ELEMENT, name=LeftBoundary
_LeftBoundary_S2, S2
_LeftBoundary_S1, S1
*Elset, elset=_RightBoundary_S2, internal
 525, 826, 830, 832
*Elset, elset=_RightBoundary_S1, internal
 674,
*Surface, type=ELEMENT, name=RightBoundary
_RightBoundary_S2, S2
_RightBoundary_S1, S1
*Elset, elset=_TopSurface_S3, internal
   2,  76, 385, 393, 397, 409, 417, 433, 437
*Elset, elset=_TopSurface_S2, internal
   12,   33,   34,   35,   42,   44,   45,   54,   56,   64,   66,   67,   78,   87,   98,  101
  140,  152,  160,  168,  176,  188,  208,  212,  224,  225,  231,  233,  244,  253,  255,  263
  265,  266,  275,  277,  278,  286,  288,  289,  297,  299,  310,  319,  320,  321,  329,  333
  337,  341,  345,  346,  350,  354,  357,  361,  365,  370,  373,  377,  382,  386,  389,  401
  405,  413,  418,  421,  425,  426,  445,  446,  447,  448,  449,  450,  451,  452,  456,  457
  460,  464,  468,  472,  476,  477,  480,  481,  486,  487,  488,  489,  490,  491,  493,  497
  501,  502,  505,  510,  513,  674,  686,  688,  691,  692,  698,  699,  700,  701,  702,  709
  710,  711,  715,  719,  722,  725,  728,  731,  733,  736,  738,  740,  742,  747,  749,  751
  753,  755,  760,  762,  764,  767,  769,  772,  775,  778,  781,  782,  785,  786,  787,  791
  792,  793,  794,  795,  801,  802,  803,  804,  839,  853,  860,  863,  879,  882,  903,  906
  920,  927,  929,  936,  944,  951,  953,  960,  975,  984,  989,  997, 1011, 1014, 1028, 1035
 1044, 1049, 1059, 1075, 1078, 1092, 1099, 1108, 1115, 1118, 1132, 1136, 1139, 1148, 1155, 1158
 1172, 1179, 1188, 1195, 1198, 1212, 1219, 1235, 1238, 1251, 1254, 1268, 1275, 1291, 1294, 1307
 1310, 1321, 1331, 1340, 1347, 1360, 1363, 1379, 1382, 1395, 1398, 1411, 1414, 1427, 1443, 1445
 1446, 1460, 1464, 1467, 1476, 1479, 1483, 1492, 1499, 1508, 1511, 1515, 1524, 1579, 1641, 1910
 1938, 1953, 1959, 2034, 2041, 2049, 2070, 2072, 2076, 2078, 2091
*Elset, elset=_TopSurface_S1, internal
  89, 100, 492, 509, 517, 521, 677, 678, 681, 683, 684, 685, 811, 814, 815, 816
 820,
*Surface, type=ELEMENT, name=TopSurface
_TopSurface_S3, S3
_TopSurface_S2, S2
_TopSurface_S1, S1
** Section: Crust
*Solid Section, elset=Crust, material=Crust
,
** Section: Mantle
*Solid Section, elset=Mantle, material=Mantle
,
*End Instance
**  
*Elset, elset=AllElements, instance=Planar-1, generate
     1,  12756,      1
*Nset, nset=AllNodes, instance=Planar-1, generate
    1,  6543,     1
*Nset, nset=BottomBoundary, instance=Planar-1
   5,   6, 578, 579, 580, 581, 582, 583, 584, 585, 586, 587, 588, 589, 590, 591
 592, 593
*Elset, elset=BottomBoundary, instance=Planar-1
  2135,  2137,  2155,  2159,  2163,  2167,  2168,  2175,  2179,  2486,  2487,  2490, 12737, 12747, 12750, 12753
 12756,
*Elset, elset=CrustalElement, instance=Planar-1
 2006,
*Nset, nset=EntireGeometry, instance=Planar-1, generate
    1,  6543,     1
*Elset, elset=EntireGeometry, instance=Planar-1, generate
     1,  12756,      1
*Nset, nset=LeftBoundary, instance=Planar-1
   1,   4,   5, 563, 564, 565, 566, 567, 568, 569, 570, 571, 572, 573, 574, 575
 576, 577
*Elset, elset=LeftBoundary, instance=Planar-1
  677,  822,  828,  834,  836, 2133, 2477, 2482, 2486, 3047, 3053, 3057, 3063, 3065, 3615, 3616
 3617,
*Nset, nset=LeftandRightBoundary, instance=Planar-1
   1,   2,   3,   4,   5,   6, 283, 284, 285, 286, 563, 564, 565, 566, 567, 568
 569, 570, 571, 572, 573, 574, 575, 576, 577, 594, 595, 596, 597, 598, 599, 600
 601, 602, 603, 604
*Elset, elset=LeftandRightBoundary, instance=Planar-1
  525,  674,  677,  822,  826,  828,  830,  832,  834,  836, 2133, 2187, 2477, 2482, 2486, 2492
 2500, 3025, 3047, 3049, 3052, 3053, 3056, 3057, 3060, 3062, 3063, 3065, 3068, 3613, 3615, 3616
 3617, 4728
*Nset, nset=Mantle, instance=Planar-1
    1,    2,    5,    6,    7,    8,    9,   10,   11,   12,   13,   14,   15,   16,   17,   18
   19,   20,   21,   22,   23,   24,   25,   26,   27,   28,   29,   30,   31,   32,   33,   34
   35,   36,   37,   38,   39,   40,   41,   42,   43,   44,   45,   46,   47,   48,   49,   50
   51,   52,   53,   54,   55,   56,   57,   58,   59,   60,   61,   62,   63,   64,   65,   66
   67,   68,   69,   70,   71,   72,   73,   74,   75,   76,   77,   78,   79,   80,   81,   82
   83,   84,   85,   86,   87,   88,   89,   90,   91,   92,   93,   94,   95,   96,   97,   98
   99,  100,  101,  102,  103,  104,  105,  106,  107,  108,  109,  110,  111,  112,  113,  114
  115,  116,  117,  118,  119,  120,  121,  122,  123,  124,  125,  126,  127,  128,  129,  130
  131,  132,  133,  134,  135,  136,  137,  138,  139,  140,  141,  142,  143,  144,  145,  146
  147,  148,  149,  150,  151,  152,  153,  154,  155,  156,  157,  158,  159,  160,  161,  162
  163,  164,  165,  166,  167,  168,  169,  170,  171,  172,  173,  174,  175,  176,  177,  178
  179,  180,  181,  182,  183,  184,  185,  186,  187,  188,  189,  190,  191,  192,  193,  194
  195,  196,  197,  198,  199,  200,  201,  202,  203,  204,  205,  206,  207,  208,  209,  210
  211,  212,  213,  214,  215,  216,  217,  218,  219,  220,  221,  222,  223,  224,  225,  226
  227,  228,  229,  230,  231,  232,  233,  234,  235,  236,  237,  238,  239,  240,  241,  242
  243,  244,  245,  246,  247,  248,  249,  250,  251,  252,  253,  254,  255,  256,  257,  258
  259,  260,  261,  262,  263,  264,  265,  266,  267,  268,  269,  270,  271,  272,  273,  274
  275,  276,  277,  278,  279,  280,  281,  282,  567,  568,  569,  570,  571,  572,  573,  574
  575,  576,  577,  578,  579,  580,  581,  582,  583,  584,  585,  586,  587,  588,  589,  590
  591,  592,  593,  594,  595,  596,  597,  598,  599,  600,  601,  602,  603,  604, 1383, 1384
** ... 323 like lines cut
*Elset, elset=Mantle, instance=Planar-1, generate
  2119,  12756,      1
*Elset, elset=MantleElement, instance=Planar-1
 12107,
*Nset, nset=PushLeft, instance=Planar-1
   1,   4,   5, 563, 564, 565, 566, 567, 568, 569, 570, 571, 572, 573, 574, 575
 576, 577
*Elset, elset=PushLeft, instance=Planar-1
  677,  822,  828,  834,  836, 2133, 2477, 2482, 2486, 3047, 3053, 3057, 3063, 3065, 3615, 3616
 3617,
*Nset, nset=RightBoundary, instance=Planar-1
   2,   3,   6, 283, 284, 285, 286, 594, 595, 596, 597, 598, 599, 600, 601, 602
 603, 604
*Elset, elset=RightBoundary, instance=Planar-1
  525,  674,  826,  830,  832, 2187, 2492, 2500, 3025, 3049, 3052, 3056, 3060, 3062, 3068, 3613
 4728,
*Nset, nset=Top_Surface, instance=Planar-1
   3,   4, 287, 288, 289, 290, 291, 292, 293, 294, 295, 296, 297, 298, 299, 300
 301, 302, 303, 304, 305, 306, 307, 308, 309, 310, 311, 312, 313, 314, 315, 316
 317, 318, 319, 320, 321, 322, 323, 324, 325, 326, 327, 328, 329, 330, 331, 332
 333, 334, 335, 336, 337, 338, 339, 340, 341, 342, 343, 344, 345, 346, 347, 348
 349, 350, 351, 352, 353, 354, 355, 356, 357, 358, 359, 360, 361, 362, 363, 364
 365, 366, 367, 368, 369, 370, 371, 372, 373, 374, 375, 376, 377, 378, 379, 380
 381, 382, 383, 384, 385, 386, 387, 388, 389, 390, 391, 392, 393, 394, 395, 396
 397, 398, 399, 400, 401, 402, 403, 404, 405, 406, 407, 408, 409, 410, 411, 412
 413, 414, 415, 416, 417, 418, 419, 420, 421, 422, 423, 424, 425, 426, 427, 428
 429, 430, 431, 432, 433, 434, 435, 436, 437, 438, 439, 440, 441, 442, 443, 444
 445, 446, 447, 448, 449, 450, 451, 452, 453, 454, 455, 456, 457, 458, 459, 460
 461, 462, 463, 464, 465, 466, 467, 468, 469, 470, 471, 472, 473, 474, 475, 476
 477, 478, 479, 480, 481, 482, 483, 484, 485, 486, 487, 488, 489, 490, 491, 492
 493, 494, 495, 496, 497, 498, 499, 500, 501, 502, 503, 504, 505, 506, 507, 508
 509, 510, 511, 512, 513, 514, 515, 516, 517, 518, 519, 520, 521, 522, 523, 524
 525, 526, 527, 528, 529, 530, 531, 532, 533, 534, 535, 536, 537, 538, 539, 540
 541, 542, 543, 544, 545, 546, 547, 548, 549, 550, 551, 552, 553, 554, 555, 556
 557, 558, 559, 560, 561, 562
*Elset, elset=Top_Surface, instance=Planar-1
    2,   12,   33,   34,   35,   42,   44,   45,   54,   56,   64,   66,   67,   76,   78,   87
   89,   98,  100,  101,  140,  152,  160,  168,  176,  188,  208,  212,  224,  225,  231,  233
  244,  253,  255,  263,  265,  266,  275,  277,  278,  286,  288,  289,  297,  299,  310,  319
  320,  321,  329,  333,  337,  341,  345,  346,  350,  354,  357,  361,  365,  370,  373,  377
  382,  385,  386,  389,  393,  397,  401,  405,  409,  413,  417,  418,  421,  425,  426,  433
  437,  445,  446,  447,  448,  449,  450,  451,  452,  456,  457,  460,  464,  468,  472,  476
  477,  480,  481,  486,  487,  488,  489,  490,  491,  492,  493,  497,  501,  502,  505,  509
  510,  513,  517,  521,  674,  677,  678,  681,  683,  684,  685,  686,  688,  691,  692,  698
  699,  700,  701,  702,  709,  710,  711,  715,  719,  722,  725,  728,  731,  733,  736,  738
  740,  742,  747,  749,  751,  753,  755,  760,  762,  764,  767,  769,  772,  775,  778,  781
  782,  785,  786,  787,  791,  792,  793,  794,  795,  801,  802,  803,  804,  811,  814,  815
  816,  820,  839,  853,  860,  863,  879,  882,  903,  906,  920,  927,  929,  936,  944,  951
  953,  960,  975,  984,  989,  997, 1011, 1014, 1028, 1035, 1044, 1049, 1059, 1075, 1078, 1092
 1099, 1108, 1115, 1118, 1132, 1136, 1139, 1148, 1155, 1158, 1172, 1179, 1188, 1195, 1198, 1212
 1219, 1235, 1238, 1251, 1254, 1268, 1275, 1291, 1294, 1307, 1310, 1321, 1331, 1340, 1347, 1360
 1363, 1379, 1382, 1395, 1398, 1411, 1414, 1427, 1443, 1445, 1446, 1460, 1464, 1467, 1476, 1479
 1483, 1492, 1499, 1508, 1511, 1515, 1524, 1579, 1641, 1910, 1938, 1953, 1959, 2034, 2041, 2049
 2070, 2072, 2076, 2078, 2091
*Elset, elset=_BottomSurface_S3, internal, instance=Planar-1
 2135,
*Elset, elset=_BottomSurface_S2, internal, instance=Planar-1
  2137,  2155,  2159,  2163,  2167,  2168,  2175,  2179,  2486, 12737, 12747, 12750, 12753, 12756
*Elset, elset=_BottomSurface_S1, internal, instance=Planar-1
 2487, 2490
*Surface, type=ELEMENT, name=BottomSurface
_BottomSurface_S3, S3
_BottomSurface_S2, S2
_BottomSurface_S1, S1
*Elset, elset=_LeftSurface_S2, internal, instance=Planar-1
  677,  828,  834,  836, 2133, 2477, 2482, 3047, 3053, 3057, 3063, 3065, 3615, 3616, 3617
*Elset, elset=_LeftSurface_S1, internal, instance=Planar-1
  822, 2486
*Surface, type=ELEMENT, name=LeftSurface
_LeftSurface_S2, S2
_LeftSurface_S1, S1
*Elset, elset=_LeftandRight_S2, internal, instance=Planar-1
  525,  677,  826,  828,  830,  832,  834,  836, 2133, 2187, 2477, 2482, 2500, 3025, 3047, 3049
 3052, 3053, 3056, 3057, 3060, 3062, 3063, 3065, 3068, 3613, 3615, 3616, 3617, 4728
*Elset, elset=_LeftandRight_S1, internal, instance=Planar-1
  674,  822, 2486, 2492
*Surface, type=ELEMENT, name=LeftandRight
_LeftandRight_S2, S2
_LeftandRight_S1, S1
*Elset, elset=_RightSurface_S2, internal, instance=Planar-1
  525,  826,  830,  832, 2187, 2500, 3025, 3049, 3052, 3056, 3060, 3062, 3068, 3613, 4728
*Elset, elset=_RightSurface_S1, internal, instance=Planar-1
  674, 2492
*Surface, type=ELEMENT, name=RightSurface
_RightSurface_S2, S2
_RightSurface_S1, S1
*Elset, elset=_TopSurface_S3, internal, instance=Planar-1
   2,  76, 385, 393, 397, 409, 417, 433, 437
*Elset, elset=_TopSurface_S2, internal, instance=Planar-1
   12,   33,   34,   35,   42,   44,   45,   54,   56,   64,   66,   67,   78,   87,   98,  101
  140,  152,  160,  168,  176,  188,  208,  212,  224,  225,  231,  233,  244,  253,  255,  263
  265,  266,  275,  277,  278,  286,  288,  289,  297,  299,  310,  319,  320,  321,  329,  333
  337,  341,  345,  346,  350,  354,  357,  361,  365,  370,  373,  377,  382,  386,  389,  401
  405,  413,  418,  421,  425,  426,  445,  446,  447,  448,  449,  450,  451,  452,  456,  457
  460,  464,  468,  472,  476,  477,  480,  481,  486,  487,  488,  489,  490,  491,  493,  497
  501,  502,  505,  510,  513,  674,  686,  688,  691,  692,  698,  699,  700,  701,  702,  709
  710,  711,  715,  719,  722,  725,  728,  731,  733,  736,  738,  740,  742,  747,  749,  751
  753,  755,  760,  762,  764,  767,  769,  772,  775,  778,  781,  782,  785,  786,  787,  791
  792,  793,  794,  795,  801,  802,  803,  804,  839,  853,  860,  863,  879,  882,  903,  906
  920,  927,  929,  936,  944,  951,  953,  960,  975,  984,  989,  997, 1011, 1014, 1028, 1035
 1044, 1049, 1059, 1075, 1078, 1092, 1099, 1108, 1115, 1118, 1132, 1136, 1139, 1148, 1155, 1158
 1172, 1179, 1188, 1195, 1198, 1212, 1219, 1235, 1238, 1251, 1254, 1268, 1275, 1291, 1294, 1307
 1310, 1321, 1331, 1340, 1347, 1360, 1363, 1379, 1382, 1395, 1398, 1411, 1414, 1427, 1443, 1445
 1446, 1460, 1464, 1467, 1476, 1479, 1483, 1492, 1499, 1508, 1511, 1515, 1524, 1579, 1641, 1910
 1938, 1953, 1959, 2034, 2041, 2049, 2070, 2072, 2076, 2078, 2091
*Elset, elset=_TopSurface_S1, internal, instance=Planar-1
  89, 100, 492, 509, 517, 521, 677, 678, 681, 683, 684, 685, 811, 814, 815, 816
 820,
*Surface, type=ELEMENT, name=TopSurface
_TopSurface_S3, S3
_TopSurface_S2, S2
_TopSurface_S1, S1
*End Assembly
*Amplitude, name=CompressionAmp, time=TOTAL TIME
             0.,              1., 315360000000000.,              1.
*Amplitude, name=GravityAmp, time=TOTAL TIME
             0.,              1., 100000000000000.,              1.
** 
** 
** MATERIALS
**
**********************************************************************************************************************
**********************************************************************************************************************
*Material, name=Mantle
*Density
 3300.
*Depvar
     28,
*User Material, constants=18, type=MECHANICAL
**E=PROPS(1)  v=PROPS(2)  c_0=PROPS(3)  H=PROPS(4)  PWR=PROPS(5)  phi_i=PROPS(6)    phi_f=PROPS(7)   RHOD_REF=PROPS(8)
**Young's     Poisson's   Initial       Hardening   Stress        Initial friction  Final friction   Reference 
**modulus     ratio       cohesion      modulus     exponent      angle             angle            density
 25e+09,      0.25,       1e+06,        5e+06,      3.5,          23.6,             30.,             3300.
**C_P=PROPS(9)  E_A=PROPS(10) R=PROPS(11)     A=PROPS(12)      1/MU=PROPS(13)       psi=PROPS(14)    TREF=PROPS(15)
**Specific heat Activation    Molecular gas   Pre-exponential  Relative VP strain   Dilatancy        Reference
**capacity      energy        constant        constants        rate                 angle            temperature 
  1050.,        535000.,      8.31,           2e-21,        1e15,                10.,             280.
**ALPH_LE=PROPS(16)   EPSILON_BAR_C=PROPS(17)                  MUN=PROPS(18)
** Linear expansion   Critical effective plastic strain        Viscosity-related parameter   
   3.5e-05,           0.005,                                   10e-16
*User Material, constants=3, type=THERMAL
** Thermal        Specific         Density
** conductivity   heat capacity    
   3.,           1050.,           3300.
**********************************************************************************************************************
**********************************************************************************************************************
*Material, name=Crust
*Density
 2950.
*Depvar
     28,
*User Material, constants=18, type=MECHANICAL
**E=PROPS(1)  v=PROPS(2)  c_0=PROPS(3)  H=PROPS(4)  PWR=PROPS(5)  phi_i=PROPS(6)     phi_f=PROPS(7)   RHOD_REF=PROPS(8)
**Young's     Poisson's   Initial       Hardening   Stress        Initial friction   Final friction   Reference 
**modulus     ratio       cohesion      modulus     exponent      angle              angle            density
 25e+09,      0.25,       1e+06,        5e+06,      2.3,          23.6,              30.,             2950.
**C_P=PROPS(9)  E_A=PROPS(10) R=PROPS(11)     A=PROPS(12)      1/MU=PROPS(13)        psi=PROPS(14)    TREF=PROPS(15)
**Specific heat Activation    Molecular gas   Pre-exponential  Relative VP strain    Dilatancy        Reference
**capacity      energy        constant        constants        rate                  angle            temperature 
    1050.,      154000.,      8.31,           1.59e-14,        1e15,                 10.,             280.
**ALPH_LE=PROPS(16)   EPSILON_BAR_C=PROPS(17)              MUN=PROPS(18)
** Linear expansion   Critical effective plastic strain    Viscosity-related parameter   
   3.5e-05,           0.005,                               10e-16
*User Material, constants=3, type=THERMAL
** Thermal        Specific         Density
** conductivity   heat capacity    
 3.,             1050.,           2950.
**********************************************************************************************************************
**********************************************************************************************************************
*Material, name=WeakShearZone
*Density
 3100.
*Depvar
     28,
*User Material, constants=18, type=MECHANICAL
**E=PROPS(1)  v=PROPS(2)  c_0=PROPS(3)  H=PROPS(4)  PWR=PROPS(5)  phi_i=PROPS(6)     phi_f=PROPS(7)   RHOD_REF=PROPS(8)
**Young's     Poisson's   Initial       Hardening   Stress        Initial friction   Final friction   Reference 
**modulus     ratio       cohesion      modulus     exponent      angle              angle            density
 25e+09,      0.25,       1e+06,        5e+06,      4.,            2.9,               30.,             3100.
**C_P=PROPS(9)  E_A=PROPS(10) R=PROPS(11)     A=PROPS(12)      1/MU=PROPS(13)       psi=PROPS(14)    TREF=PROPS(15)
**Specific heat Activation    Molecular gas   Pre-exponential  Relative VP strain    Dilatancy        Reference
**capacity      energy        constant        constants        rate                  angle            temperature  
    1050.,      283000.,      8.31,           2.08e-23,        1e15,                 5.,              280.
**ALPH_LE=PROPS(16)   EPSILON_BAR_C=PROPS(17)              MUN=PROPS(18)
** Linear expansion   Critical effective plastic strain    Viscosity-related parameter   
   3.5e-05,           0.005,                               10e-16
*User Material, constants=3, type=THERMAL
** Thermal        Specific         Density
** conductivity   heat capacity    
   3.,           1050.,           3100.
** 
** 
** 
**********************************************************************************************************************
**********************************************************************************************************************
**
** 
** INTERACTION PROPERTIES
** 
*Surface Interaction, name=IntProp-1
1.,
*Friction, slip tolerance=0.005
 0.3,
*Surface Behavior, penalty
** 
** BOUNDARY CONDITIONS
** 
** Name: Fixed4Grav Type: Velocity/Angular velocity
*Boundary, type=VELOCITY
LeftandRightBoundary, 1, 1
** Name: FixedBottom Type: Velocity/Angular velocity
*Boundary, type=VELOCITY
BottomBoundary, 2, 2
** 
** PREDEFINED FIELDS
** 
** Name: TemperatureGradient   Type: Temperature
*Initial Conditions, type=TEMPERATURE, file=/DATA/IPGP_PostDoc_Abaqus/010_large_scale_mod/005A_TEMP.odb, step=1, inc=57, interpolate
** 
** INTERACTIONS
** 
** Interaction: Int-1
*Contact Pair, interaction=IntProp-1, type=SURFACE TO SURFACE
TopSurface,
** ----------------------------------------------------------------
** 
** STEP: Gravity
** 
*Step, name=Gravity, nlgeom=YES
*Coupled Temperature-displacement, creep=none, deltmx=1e+21, stabilize, factor=0.0002, allsdtol=0.05, continue=NO
1., 1., 1., 1.
** 
** LOADS
** 
** Name: Gravity   Type: Gravity
*Dload, amplitude=CompressionAmp
EntireGeometry, GRAV, 9.8, 0., -1.
** 
** OUTPUT REQUESTS
** 
*Restart, write, frequency=0
** 
** FIELD OUTPUT: Gravity
** 
*Output, field
*Node Output
NT, U, V
*Element Output, directions=YES
BF, E, EE, ER, ESDV, GRAV, IE, LE, MISES, MISESONLY, NE, P, S, SDV, TEMP
*Radiation Output
FTEMP, 
*Contact Output
CSTRESSERI, 
** 
** HISTORY OUTPUT: Gravity
** 
*Output, history
*Radiation Output
FTEMP, 
*Contact Output
CSTRESS, HTL
*End Step
** ----------------------------------------------------------------
** 
** STEP: Compress
** 
*Step, name=Compress, nlgeom=YES, inc=1000000
*Coupled Temperature-displacement, creep=none, deltmx=1e+13, stabilize=0.0002, allsdtol=0.05, continue=NO
1e-14, 3.1536e+14, 1e-14, 3.1536e+14
** 
** BOUNDARY CONDITIONS
** 
** Name: BottomTemp Type: Temperature
*Boundary, op=NEW
BottomBoundary, 11, 11, 1672.
** Name: CompressLeftBoundary Type: Velocity/Angular velocity
*Boundary, op=NEW, amplitude=CompressionAmp, type=VELOCITY
PushLeft, 1, 1, 6.342e-10
** Name: CompressRightBoundary Type: Velocity/Angular velocity
*Boundary, op=NEW, amplitude=CompressionAmp, type=VELOCITY
RightBoundary, 1, 1, -6.342e-10
** Name: Fixed4Grav Type: Velocity/Angular velocity
*Boundary, op=NEW
** Name: FixedBottom Type: Velocity/Angular velocity
*Boundary, op=NEW, type=VELOCITY
BottomBoundary, 2, 2
** Name: TopTemp Type: Temperature
*Boundary, op=NEW
Top_Surface, 11, 11, 273.
** 
** LOADS
** 
** Name: AdiabaticSides   Type: Surface heat flux
*Dsflux, amplitude=CompressionAmp
LeftandRight, S, 1e-99
** 
** CONTROLS
** 
*Controls, reset
*Controls, parameters=time incrementation
, , , , , , , 52, , , 
** 
** OUTPUT REQUESTS
** 
*Restart, write, frequency=0
** 
** FIELD OUTPUT: Gravity
** 
*Output, field
*Node Output
NT, U, V
*Element Output, directions=YES
BF, E, EE, ER, ESDV, GRAV, IE, LE, MISES, MISESONLY, NE, P, S, SDV, TEMP
*Radiation Output
FTEMP, 
*Contact Output
CSTRESSERI, 
** 
** FIELD OUTPUT: Compress
** 
*Output, field, frequency=20
*Node Output
NT, U, V
*Element Output, directions=YES
BF, E, EE, ER, ESDV, GRAV, IE, LE, MISES, MISESONLY, NE, P, S, SDV, TEMP
*Radiation Output
FTEMP, 
*Contact Output
CSTRESSERI, 
** 
** HISTORY OUTPUT: Compress, Gravity
** 
*Output, history
*Radiation Output
FTEMP, 
*Contact Output
CSTRESS, HTL
** 
** HISTORY OUTPUT: CruatalElement
** 
*Element Output, elset=CrustalElement
E11, E12, E13, E22, E23, E33, ER11, ER12, ER13, ER22, ER23, ER33, PRESS, S11, S12, S13
S22, S23, S33, SDV, TEMP
** 
** HISTORY OUTPUT: MantleElement
** 
*Element Output, elset=MantleElement
E11, E12, E13, E22, E23, E33, ER11, ER12, ER13, ER22, ER23, ER33, PRESS, S11, S12, S13
S22, S23, S33, SDV, TEMP
*End Step
